<?xml version="1.0" encoding="UTF-8"?>

<!-- generated on 04/16/20 17:35:05 by SUMO netconvert Version 0.32.0
<?xml version="1.0" encoding="UTF-8"?>

<configuration xmlns:xsi="http://www.w3.org/2001/XMLSchema-instance" xsi:noNamespaceSchemaLocation="http://sumo.dlr.de/xsd/netconvertConfiguration.xsd">

    <input>
        <sumo-net-file value="sellyOak.net.xml"/>
    </input>

    <output>
        <plain-output-prefix value="sellyOak"/>
    </output>

    <processing>
        <no-turnarounds value="true"/>
        <offset.disable-normalization value="true"/>
        <lefthand value="true"/>
        <junctions.corner-detail value="0"/>
        <rectangular-lane-cut value="false"/>
        <walkingareas value="false"/>
    </processing>

</configuration>
-->

<edges version="0.27" xmlns:xsi="http://www.w3.org/2001/XMLSchema-instance" xsi:noNamespaceSchemaLocation="http://sumo.dlr.de/xsd/edges_file.xsd">
    <edge id="edge0" from="node0" to="node1" priority="6" type="highway.tertiary" numLanes="1" speed="13.41" disallow="tram rail_urban rail rail_electric ship"/>
    <edge id="edge1" from="node1" to="node2" priority="6" type="highway.tertiary" numLanes="1" speed="13.41" shape="1494.16,1797.25 1495.69,1791.28 1500.83,1771.03 1506.49,1751.35" disallow="tram rail_urban rail rail_electric ship"/>
    <edge id="edge10" from="node16" to="node17" priority="8" type="highway.primary_link" numLanes="1" speed="22.22" disallow="tram rail_urban rail rail_electric ship"/>
    <edge id="edge100" from="node113" to="node112" priority="1" numLanes="1" speed="13.41"/>
    <edge id="edge101" from="junc0" to="node114" priority="1" numLanes="2" speed="13.41"/>
    <edge id="edge102" from="node5" to="node114" priority="1" numLanes="2" speed="13.41"/>
    <edge id="edge103" from="node73" to="junc4" priority="1" numLanes="3" speed="13.41"/>
    <edge id="edge104" from="node115" to="junc5" priority="1" numLanes="1" speed="13.41"/>
    <edge id="edge105" from="junc5" to="node3" priority="1" numLanes="2" speed="13.41"/>
    <edge id="edge106" from="junc3" to="node83" priority="1" numLanes="2" speed="13.41"/>
    <edge id="edge107" from="junc3" to="node116" priority="1" numLanes="2" speed="13.41"/>
    <edge id="edge108" from="junc12" to="node56" priority="1" numLanes="2" speed="13.41"/>
    <edge id="edge109" from="junc12" to="node108" priority="1" numLanes="2" speed="13.41"/>
    <edge id="edge11" from="node18" to="node19" priority="4" type="highway.residential" numLanes="1" speed="13.41" shape="772.32,792.08 802.82,756.00 807.19,750.89" disallow="tram rail_urban rail rail_electric ship"/>
    <edge id="edge110" from="junc12" to="node65" priority="1" numLanes="2" speed="13.41"/>
    <edge id="edge111" from="junc12" to="node118" priority="1" numLanes="2" speed="13.41"/>
    <edge id="edge112" from="junc7" to="node118" priority="1" numLanes="2" speed="13.41"/>
    <edge id="edge113" from="node120" to="junc7" priority="1" numLanes="1" speed="13.41"/>
    <edge id="edge114" from="node121" to="junc7" priority="1" numLanes="3" speed="13.41"/>
    <edge id="edge115" from="junc8" to="node121" priority="1" numLanes="2" speed="13.41"/>
    <edge id="edge116" from="node123" to="junc8" priority="1" numLanes="1" speed="13.41"/>
    <edge id="edge117" from="node124" to="junc8" priority="1" numLanes="2" speed="13.41"/>
    <edge id="edge118" from="node125" to="node126" priority="1" numLanes="2" speed="13.41"/>
    <edge id="edge119" from="node127" to="node128" priority="1" numLanes="1" speed="13.41"/>
    <edge id="edge12" from="node19" to="node20" priority="4" type="highway.residential" numLanes="1" speed="13.41" disallow="tram rail_urban rail rail_electric ship"/>
    <edge id="edge120" from="node129" to="node130" priority="1" numLanes="2" speed="13.41"/>
    <edge id="edge121" from="node131" to="node63" priority="1" numLanes="1" speed="8.94"/>
    <edge id="edge122" from="node132" to="node102" priority="1" numLanes="1" speed="8.94"/>
    <edge id="edge123" from="node106" to="node132" priority="1" numLanes="1" speed="8.94"/>
    <edge id="edge124" from="node98" to="node106" priority="1" numLanes="1" speed="13.41"/>
    <edge id="edge125" from="node133" to="node98" priority="1" numLanes="1" speed="8.94"/>
    <edge id="edge126" from="node2" to="node1" priority="6" type="highway.tertiary" numLanes="1" speed="13.41" shape="1506.49,1751.35 1500.83,1771.03 1495.69,1791.28 1494.16,1797.25" disallow="tram rail_urban rail rail_electric ship"/>
    <edge id="edge127" from="node1" to="node0" priority="6" type="highway.tertiary" numLanes="1" speed="13.41" disallow="tram rail_urban rail rail_electric ship"/>
    <edge id="edge128" from="node134" to="node135" priority="11" type="highway.trunk" numLanes="2" speed="17.88" shape="2304.58,2244.34 2301.15,2241.43 2270.17,2215.66 2228.96,2179.98 2101.58,2070.28 2073.29,2048.00" spreadType="center" disallow="tram rail_urban rail rail_electric bicycle pedestrian ship"/>
    <edge id="edge129" from="node135" to="node59" priority="11" type="highway.trunk" numLanes="2" speed="17.88" shape="2073.29,2048.00 2071.04,2045.62 2054.09,2031.47 2040.69,2020.45 1931.99,1927.27 1912.38,1910.81" spreadType="center" disallow="tram rail_urban rail rail_electric bicycle pedestrian ship"/>
    <edge id="edge13" from="node21" to="node18" priority="4" type="highway.residential" numLanes="1" speed="13.41" shape="718.86,854.30 739.09,830.16 760.37,806.53 772.32,792.08" disallow="tram rail_urban rail rail_electric ship"/>
    <edge id="edge130" from="node59" to="node136" priority="11" type="highway.trunk" numLanes="2" speed="17.88" shape="1912.38,1910.81 1899.99,1900.39 1826.62,1836.10 1757.84,1789.52 1627.93,1728.27 1591.71,1718.72" spreadType="center" disallow="tram rail_urban rail rail_electric bicycle pedestrian ship"/>
    <edge id="edge131" from="node136" to="junc6" priority="11" type="highway.trunk" numLanes="3" speed="13.41" shape="1591.71,1718.72 1519.81,1702.12" spreadType="center" disallow="tram rail_urban rail rail_electric bicycle pedestrian ship"/>
    <edge id="edge132" from="node137" to="node41" priority="6" type="highway.tertiary" numLanes="1" speed="22.22" shape="444.33,653.35 441.45,661.05 438.88,663.87 436.23,666.79 427.39,672.55" spreadType="center" disallow="tram rail_urban rail rail_electric ship"/>
    <edge id="edge133" from="node138" to="node139" priority="10" type="highway.trunk_link" numLanes="1" speed="13.41" shape="585.59,818.34 576.20,797.77 553.61,764.04 547.10,751.44 545.56,743.12" spreadType="center" disallow="tram rail_urban rail rail_electric bicycle pedestrian ship"/>
    <edge id="edge134" from="node140" to="node141" priority="10" type="highway.trunk_link" numLanes="1" speed="17.88" shape="154.99,284.42 161.36,286.39 166.66,285.23 169.21,282.38 169.85,281.22 170.84,276.73" spreadType="center" disallow="tram rail_urban rail rail_electric bicycle pedestrian ship"/>
    <edge id="edge135" from="node4" to="node3" priority="11" type="highway.trunk" numLanes="2" speed="13.41" shape="1282.94,1608.18 1289.05,1609.99 1324.29,1619.30" disallow="tram rail_urban rail rail_electric bicycle pedestrian ship"/>
    <edge id="edge136" from="node6" to="node5" priority="4" type="highway.residential" numLanes="1" speed="8.94" shape="972.21,1599.03 991.30,1556.64 993.75,1548.44 996.11,1537.42 1003.00,1482.89" disallow="tram rail_urban rail rail_electric ship"/>
    <edge id="edge137" from="node142" to="node94" priority="7" type="highway.secondary" numLanes="1" speed="13.41" spreadType="center" disallow="tram rail_urban rail rail_electric ship"/>
    <edge id="edge138" from="node8" to="node7" priority="11" type="highway.trunk" numLanes="1" speed="13.41" shape="871.53,1641.50 885.63,1640.81 928.39,1640.33 962.47,1637.60 982.35,1635.15" disallow="tram rail_urban rail rail_electric bicycle pedestrian ship"/>
    <edge id="edge139" from="node7" to="node9" priority="11" type="highway.trunk" numLanes="1" speed="13.41" shape="982.35,1635.15 1034.30,1623.91 1055.57,1619.65 1074.92,1618.07" disallow="tram rail_urban rail rail_electric bicycle pedestrian ship"/>
    <edge id="edge14" from="junc9" to="node21" priority="4" type="highway.residential" numLanes="1" speed="8.94" shape="646.98,931.20 709.86,864.64 718.86,854.30" disallow="tram rail_urban rail rail_electric ship"/>
    <edge id="edge140" from="node13" to="node12" priority="11" type="highway.trunk" numLanes="2" speed="13.41" disallow="tram rail_urban rail rail_electric bicycle pedestrian ship"/>
    <edge id="edge141" from="node12" to="node11" priority="11" type="highway.trunk" numLanes="2" speed="13.41" shape="2621.77,2768.63 2618.25,2761.83 2606.47,2740.00 2592.44,2713.76 2567.16,2663.57" disallow="tram rail_urban rail rail_electric bicycle pedestrian ship"/>
    <edge id="edge142" from="node11" to="junc3" priority="11" type="highway.trunk" numLanes="3" speed="13.41" disallow="tram rail_urban rail rail_electric bicycle pedestrian ship"/>
    <edge id="edge143" from="node143" to="node144" priority="11" type="highway.trunk" numLanes="2" speed="13.41" shape="443.12,636.02 435.59,627.84 423.50,614.96" spreadType="center" disallow="tram rail_urban rail rail_electric bicycle pedestrian ship"/>
    <edge id="edge144" from="node144" to="node145" priority="11" type="highway.trunk" numLanes="2" speed="13.41" shape="423.50,614.96 420.07,611.18 372.24,562.71" spreadType="center" disallow="tram rail_urban rail rail_electric bicycle pedestrian ship"/>
    <edge id="edge145" from="node145" to="node146" priority="11" type="highway.trunk" numLanes="2" speed="13.41" shape="372.24,562.71 362.40,552.67 348.72,538.90" spreadType="center" disallow="tram rail_urban rail rail_electric bicycle pedestrian ship"/>
    <edge id="edge146" from="node146" to="node147" priority="11" type="highway.trunk" numLanes="2" speed="13.41" spreadType="center" disallow="tram rail_urban rail rail_electric bicycle pedestrian ship"/>
    <edge id="edge147" from="node147" to="node148" priority="11" type="highway.trunk" numLanes="2" speed="13.41" shape="322.53,511.82 308.90,497.72 275.34,464.46 242.38,431.42 224.87,415.56 210.34,398.35 196.35,375.98 190.98,363.68 185.80,350.55" spreadType="center" disallow="tram rail_urban rail rail_electric bicycle pedestrian ship"/>
    <edge id="edge148" from="node148" to="node34" priority="11" type="highway.trunk" numLanes="2" speed="13.41" spreadType="center" disallow="tram rail_urban rail rail_electric bicycle pedestrian ship"/>
    <edge id="edge149" from="node34" to="node149" priority="11" type="highway.trunk" numLanes="2" speed="13.41" spreadType="center" disallow="tram rail_urban rail rail_electric bicycle pedestrian ship"/>
    <edge id="edge15" from="node23" to="node24" priority="5" type="highway.unclassified" numLanes="1" speed="8.94" shape="654.69,946.81 676.24,943.47 710.57,942.68" disallow="tram rail_urban rail rail_electric ship"/>
    <edge id="edge150" from="node149" to="node150" priority="11" type="highway.trunk" numLanes="2" speed="13.41" spreadType="center" disallow="tram rail_urban rail rail_electric bicycle pedestrian ship"/>
    <edge id="edge151" from="node150" to="node101" priority="11" type="highway.trunk" numLanes="2" speed="17.88" spreadType="center" disallow="tram rail_urban rail rail_electric bicycle pedestrian ship"/>
    <edge id="edge152" from="junc10" to="node152" priority="11" type="highway.trunk" numLanes="2" speed="13.41" spreadType="center" disallow="tram rail_urban rail rail_electric bicycle pedestrian ship"/>
    <edge id="edge153" from="node152" to="node153" priority="11" type="highway.trunk" numLanes="2" speed="13.41" shape="507.94,819.75 503.28,836.04 500.23,849.86 488.87,890.83" spreadType="center" disallow="tram rail_urban rail rail_electric bicycle pedestrian ship"/>
    <edge id="edge154" from="node153" to="node1477" priority="11" type="highway.trunk" numLanes="2" speed="13.41" shape="488.87,890.83 485.77,902.03 470.84,947.62 456.08,983.09" spreadType="center" disallow="tram rail_urban rail rail_electric bicycle pedestrian ship"/>
    <edge id="edge155" from="node1477" to="node155" priority="11" type="highway.trunk" numLanes="2" speed="13.41" spreadType="center" disallow="tram rail_urban rail rail_electric bicycle pedestrian ship"/>
    <edge id="edge156" from="node155" to="node129" priority="11" type="highway.trunk" numLanes="2" speed="13.41" shape="444.41,1019.91 415.68,1072.00" spreadType="center" disallow="tram rail_urban rail rail_electric bicycle pedestrian ship"/>
    <edge id="edge157" from="node15" to="node14" priority="8" type="highway.primary_link" numLanes="1" speed="13.41" disallow="tram rail_urban rail rail_electric ship"/>
    <edge id="edge158" from="node17" to="node16" priority="8" type="highway.primary_link" numLanes="1" speed="22.22" disallow="tram rail_urban rail rail_electric ship"/>
    <edge id="edge159" from="node20" to="node19" priority="4" type="highway.residential" numLanes="1" speed="13.41" disallow="tram rail_urban rail rail_electric ship"/>
    <edge id="edge16" from="node24" to="node25" priority="5" type="highway.unclassified" numLanes="1" speed="13.41" disallow="tram rail_urban rail rail_electric ship"/>
    <edge id="edge160" from="node19" to="node18" priority="4" type="highway.residential" numLanes="1" speed="13.41" shape="807.19,750.89 802.82,756.00 772.32,792.08" disallow="tram rail_urban rail rail_electric ship"/>
    <edge id="edge161" from="node18" to="node21" priority="4" type="highway.residential" numLanes="1" speed="13.41" shape="772.32,792.08 760.37,806.53 739.09,830.16 718.86,854.30" disallow="tram rail_urban rail rail_electric ship"/>
    <edge id="edge162" from="node21" to="junc9" priority="4" type="highway.residential" numLanes="1" speed="13.41" shape="718.86,854.30 709.86,864.64 646.98,931.20" disallow="tram rail_urban rail rail_electric ship"/>
    <edge id="edge163" from="node27" to="node26" priority="11" type="highway.trunk" numLanes="1" speed="13.41" shape="578.15,192.87 568.10,228.74 564.44,249.13" disallow="tram rail_urban rail rail_electric bicycle pedestrian ship"/>
    <edge id="edge164" from="node26" to="node28" priority="11" type="highway.trunk" numLanes="1" speed="13.41" shape="564.44,249.13 563.40,277.51 564.22,297.34 565.65,315.55 568.63,351.50 570.04,387.02 571.00,411.17" disallow="tram rail_urban rail rail_electric bicycle pedestrian ship"/>
    <edge id="edge165" from="junc0" to="node29" priority="4" type="highway.residential" numLanes="1" speed="13.41" shape="923.69,1415.69 918.21,1420.56 912.03,1424.83" disallow="tram rail_urban rail rail_electric ship"/>
    <edge id="edge166" from="node29" to="node31" priority="4" type="highway.residential" numLanes="1" speed="13.41" shape="912.03,1424.83 894.36,1437.05 891.53,1439.20 884.07,1445.65 861.71,1464.23" disallow="tram rail_urban rail rail_electric ship"/>
    <edge id="edge167" from="node31" to="node32" priority="4" type="highway.residential" numLanes="1" speed="13.41" shape="861.71,1464.23 798.30,1516.22 796.91,1523.82 812.04,1605.08 813.54,1610.85 816.83,1612.19 856.38,1617.84" disallow="tram rail_urban rail rail_electric ship"/>
    <edge id="edge168" from="node32" to="node6" priority="4" type="highway.residential" numLanes="1" speed="13.41" shape="856.38,1617.84 916.66,1625.07 938.88,1623.98 959.30,1611.99 972.21,1599.03" disallow="tram rail_urban rail rail_electric ship"/>
    <edge id="edge169" from="node31" to="node33" priority="4" type="highway.residential" numLanes="1" speed="13.41" disallow="tram rail_urban rail rail_electric ship"/>
    <edge id="edge17" from="node26" to="node27" priority="11" type="highway.trunk" numLanes="1" speed="13.41" shape="564.44,249.13 568.10,228.74 578.15,192.87" disallow="tram rail_urban rail rail_electric bicycle pedestrian ship"/>
    <edge id="edge170" from="node32" to="node114" priority="4" type="highway.residential" numLanes="1" speed="8.94" shape="856.38,1617.84 874.68,1563.23 900.03,1513.06 932.72,1474.24 955.34,1452.10" disallow="tram rail_urban rail rail_electric ship"/>
    <edge id="edge171" from="node156" to="node82" priority="4" type="highway.residential" numLanes="1" speed="13.41" shape="461.91,658.54 462.41,640.57 463.48,610.63" spreadType="center" disallow="tram rail_urban rail rail_electric ship"/>
    <edge id="edge172" from="node36" to="node35" priority="4" type="highway.residential" numLanes="1" speed="13.41" disallow="tram rail_urban rail rail_electric ship"/>
    <edge id="edge173" from="node35" to="node34" priority="4" type="highway.residential" numLanes="1" speed="13.41" shape="285.34,312.50 266.74,318.40 203.68,333.56 192.10,335.82 183.34,337.25" disallow="tram rail_urban rail rail_electric ship"/>
    <edge id="edge174" from="node38" to="node37" priority="7" type="highway.secondary" numLanes="2" speed="13.41" shape="714.35,1114.73 716.75,1119.06 728.91,1137.58 730.16,1139.59" disallow="tram rail_urban rail rail_electric ship"/>
    <edge id="edge175" from="node37" to="node39" priority="7" type="highway.secondary" numLanes="2" speed="13.41" disallow="tram rail_urban rail rail_electric ship"/>
    <edge id="edge176" from="junc1" to="node38" priority="7" type="highway.secondary" numLanes="2" speed="13.41" disallow="tram rail_urban rail rail_electric ship"/>
    <edge id="edge177" from="node43" to="node42" priority="6" type="highway.tertiary" numLanes="1" speed="8.94" disallow="tram rail_urban rail rail_electric ship"/>
    <edge id="edge178" from="node42" to="node41" priority="6" type="highway.tertiary" numLanes="1" speed="8.94" shape="217.03,705.69 225.91,704.25 304.12,691.94 311.24,690.82 411.53,675.04 427.39,672.55" disallow="tram rail_urban rail rail_electric ship"/>
    <edge id="edge179" from="junc2" to="node45" priority="6" type="highway.tertiary" numLanes="1" speed="8.94" shape="124.26,321.48 108.16,332.19 84.52,347.05 81.70,349.02 55.22,366.49 47.87,370.86 42.35,374.55 31.58,382.05 26.30,385.40" disallow="tram rail_urban rail rail_electric ship"/>
    <edge id="edge18" from="node28" to="node26" priority="11" type="highway.trunk" numLanes="1" speed="13.41" shape="571.00,411.17 570.04,387.02 568.63,351.50 565.65,315.55 564.22,297.34 563.40,277.51 564.44,249.13" disallow="tram rail_urban rail rail_electric bicycle pedestrian ship"/>
    <edge id="edge180" from="node45" to="node44" priority="6" type="highway.tertiary" numLanes="1" speed="22.22" disallow="tram rail_urban rail rail_electric ship"/>
    <edge id="edge181" from="node48" to="node47" priority="6" type="highway.tertiary" numLanes="1" speed="13.41" shape="1389.38,1488.97 1383.96,1494.99 1380.37,1501.79 1372.60,1549.54" disallow="tram rail_urban rail rail_electric ship"/>
    <edge id="edge182" from="node47" to="junc5" priority="6" type="highway.tertiary" numLanes="1" speed="13.41" disallow="tram rail_urban rail rail_electric ship"/>
    <edge id="edge183" from="junc6" to="node157" priority="11" type="highway.trunk" numLanes="2" speed="17.88" shape="1518.12,1710.12 1528.39,1714.42 1583.17,1733.23" spreadType="center" disallow="tram rail_urban rail rail_electric bicycle pedestrian ship"/>
    <edge id="edge184" from="node157" to="node58" priority="11" type="highway.trunk" numLanes="2" speed="17.88" shape="1583.17,1733.23 1596.09,1738.54 1608.42,1743.79 1680.86,1773.71 1742.79,1806.32 1810.08,1848.88 1900.19,1924.93" spreadType="center" disallow="tram rail_urban rail rail_electric bicycle pedestrian ship"/>
    <edge id="edge185" from="node58" to="node158" priority="11" type="highway.trunk" numLanes="2" speed="17.88" shape="1900.19,1924.93 1961.61,1976.77 1974.92,1988.65 2015.02,2022.28 2028.31,2033.51 2029.49,2034.42 2042.39,2045.33" spreadType="center" disallow="tram rail_urban rail rail_electric bicycle pedestrian ship"/>
    <edge id="edge186" from="node158" to="node159" priority="11" type="highway.trunk" numLanes="2" speed="17.88" shape="2042.39,2045.33 2055.59,2055.91 2173.15,2156.48 2219.29,2195.68 2265.70,2236.41 2295.21,2262.26" spreadType="center" disallow="tram rail_urban rail rail_electric bicycle pedestrian ship"/>
    <edge id="edge187" from="node23" to="node50" priority="7" type="highway.secondary" numLanes="2" speed="13.41" shape="654.69,946.81 658.21,954.67 663.75,968.30 665.99,976.30 670.02,991.07 673.05,1004.69 675.80,1018.39 678.93,1035.76 682.77,1052.01" disallow="tram rail_urban rail rail_electric ship"/>
    <edge id="edge188" from="node50" to="junc1" priority="7" type="highway.secondary" numLanes="2" speed="13.41" shape="682.77,1052.01 682.83,1052.62 685.15,1062.27 692.25,1079.21 700.79,1093.76 704.21,1099.82" disallow="tram rail_urban rail rail_electric ship"/>
    <edge id="edge189" from="node159" to="node160" priority="11" type="highway.trunk" numLanes="2" speed="13.41" spreadType="center" disallow="tram rail_urban rail rail_electric bicycle pedestrian ship"/>
    <edge id="edge19" from="node29" to="junc0" priority="4" type="highway.residential" numLanes="1" speed="13.41" shape="912.03,1424.83 918.21,1420.56 923.69,1415.69" disallow="tram rail_urban rail rail_electric ship"/>
    <edge id="edge190" from="node160" to="node161" priority="11" type="highway.trunk" numLanes="2" speed="13.41" shape="2300.43,2267.36 2306.12,2273.09 2313.11,2278.90" spreadType="center" disallow="tram rail_urban rail rail_electric bicycle pedestrian ship"/>
    <edge id="edge191" from="node161" to="node162" priority="11" type="highway.trunk" numLanes="2" speed="13.41" spreadType="center" disallow="tram rail_urban rail rail_electric bicycle pedestrian ship"/>
    <edge id="edge192" from="node162" to="node116" priority="11" type="highway.trunk" numLanes="2" speed="13.41" shape="2366.74,2327.22 2501.54,2551.96" spreadType="center" disallow="tram rail_urban rail rail_electric bicycle pedestrian ship"/>
    <edge id="edge193" from="node163" to="node14" priority="9" type="highway.primary" numLanes="2" speed="13.41" shape="2317.91,2256.55 2322.00,2250.77 2355.49,2203.48" spreadType="center" disallow="tram rail_urban rail rail_electric ship"/>
    <edge id="edge194" from="node14" to="node17" priority="9" type="highway.primary" numLanes="2" speed="13.41" shape="2355.49,2203.48 2383.95,2167.06 2426.66,2102.61 2451.24,2066.68" spreadType="center" disallow="tram rail_urban rail rail_electric ship"/>
    <edge id="edge195" from="node17" to="node81" priority="9" type="highway.primary" numLanes="2" speed="13.41" shape="2451.24,2066.68 2490.34,2017.17 2493.94,2011.89" spreadType="center" disallow="tram rail_urban rail rail_electric ship"/>
    <edge id="edge196" from="node163" to="node134" priority="11" type="highway.trunk" numLanes="2" speed="13.41" spreadType="center" disallow="tram rail_urban rail rail_electric bicycle pedestrian ship"/>
    <edge id="edge197" from="node156" to="node143" priority="11" type="highway.trunk" numLanes="2" speed="13.41" spreadType="center" disallow="tram rail_urban rail rail_electric bicycle pedestrian ship"/>
    <edge id="edge198" from="node164" to="node137" priority="11" type="highway.trunk" numLanes="3" speed="13.41" shape="420.06,628.83 422.77,631.46 444.33,653.35" spreadType="center" disallow="tram rail_urban rail rail_electric bicycle pedestrian ship"/>
    <edge id="edge199" from="node138" to="junc10" priority="11" type="highway.trunk" numLanes="3" speed="13.41" shape="585.59,818.34 573.49,806.25 563.08,793.63 533.76,752.64" spreadType="center" disallow="tram rail_urban rail rail_electric bicycle pedestrian ship"/>
    <edge id="edge2" from="node3" to="node4" priority="11" type="highway.trunk" numLanes="2" speed="13.41" shape="1324.29,1619.30 1289.05,1609.99 1282.94,1608.18" disallow="tram rail_urban rail rail_electric bicycle pedestrian ship"/>
    <edge id="edge20" from="node31" to="node29" priority="4" type="highway.residential" numLanes="1" speed="13.41" shape="861.71,1464.23 884.07,1445.65 891.53,1439.20 894.36,1437.05 912.03,1424.83" disallow="tram rail_urban rail rail_electric ship"/>
    <edge id="edge200" from="node165" to="junc10" priority="11" type="highway.trunk" numLanes="3" speed="13.41" shape="457.08,667.24 488.04,706.20 509.13,732.58 526.36,759.21" spreadType="center" disallow="tram rail_urban rail rail_electric bicycle pedestrian ship"/>
    <edge id="edge201" from="node52" to="node166" priority="11" type="highway.trunk" numLanes="1" speed="13.41" shape="563.35,559.94 562.13,573.56 560.73,609.10 560.85,610.93 559.35,643.65" disallow="tram rail_urban rail rail_electric bicycle pedestrian ship"/>
    <edge id="edge202" from="node166" to="node51" priority="11" type="highway.trunk" numLanes="2" speed="13.41" shape="559.35,643.65 559.15,647.89 558.79,651.54 555.95,656.98" disallow="tram rail_urban rail rail_electric bicycle pedestrian ship"/>
    <edge id="edge203" from="node54" to="node53" priority="7" type="highway.secondary" numLanes="2" speed="13.41" disallow="tram rail_urban rail rail_electric ship"/>
    <edge id="edge204" from="node53" to="junc0" priority="7" type="highway.secondary" numLanes="2" speed="13.41" shape="853.51,1323.87 862.95,1338.03 867.64,1344.92 893.60,1380.53 914.82,1405.33 923.69,1415.69" disallow="tram rail_urban rail rail_electric ship"/>
    <edge id="edge205" from="node55" to="node54" priority="7" type="highway.secondary" numLanes="2" speed="13.41" shape="811.26,1263.36 820.06,1275.80 823.08,1280.10 837.47,1300.66" disallow="tram rail_urban rail rail_electric ship"/>
    <edge id="edge206" from="junc9" to="node167" priority="11" type="highway.trunk" numLanes="3" speed="13.41" shape="651.52,929.24 632.68,898.07 628.04,890.04" spreadType="center" disallow="tram rail_urban rail rail_electric bicycle pedestrian ship"/>
    <edge id="edge207" from="node167" to="node138" priority="11" type="highway.trunk" numLanes="3" speed="13.41" shape="628.04,890.04 595.78,834.17 587.36,820.93 586.89,820.59 585.59,818.34" spreadType="center" disallow="tram rail_urban rail rail_electric bicycle pedestrian ship"/>
    <edge id="edge208" from="junc10" to="node168" priority="10" type="highway.trunk_link" numLanes="3" speed="13.41" shape="525.74,758.35 552.89,796.00" spreadType="center" disallow="tram rail_urban rail rail_electric bicycle pedestrian ship"/>
    <edge id="edge209" from="node168" to="junc11" priority="10" type="highway.trunk_link" numLanes="3" speed="13.41" spreadType="center" disallow="tram rail_urban rail rail_electric bicycle pedestrian ship"/>
    <edge id="edge21" from="node32" to="node31" priority="4" type="highway.residential" numLanes="1" speed="8.94" shape="856.38,1617.84 816.83,1612.19 813.54,1610.85 812.04,1605.08 796.91,1523.82 798.30,1516.22 861.71,1464.23" disallow="tram rail_urban rail rail_electric ship"/>
    <edge id="edge210" from="junc11" to="node170" priority="10" type="highway.trunk_link" numLanes="3" speed="13.41" shape="570.86,823.02 576.05,830.08 577.03,831.88 605.46,875.98" spreadType="center" disallow="tram rail_urban rail rail_electric bicycle pedestrian ship"/>
    <edge id="edge211" from="node170" to="junc9" priority="10" type="highway.trunk_link" numLanes="3" speed="13.41" shape="605.46,875.98 630.35,912.59 643.29,934.50" spreadType="center" disallow="tram rail_urban rail rail_electric bicycle pedestrian ship"/>
    <edge id="edge212" from="junc10" to="node171" priority="11" type="highway.trunk" numLanes="3" speed="13.41" shape="534.60,753.96 519.25,730.55 500.79,706.52" spreadType="center" disallow="tram rail_urban rail rail_electric bicycle pedestrian ship"/>
    <edge id="edge213" from="node171" to="node172" priority="11" type="highway.trunk" numLanes="3" speed="13.41" spreadType="center" disallow="tram rail_urban rail rail_electric bicycle pedestrian ship"/>
    <edge id="edge214" from="node57" to="node56" priority="7" type="highway.secondary" numLanes="2" speed="13.41" shape="2627.30,2594.84 2631.90,2593.91 2648.93,2592.05 2678.52,2587.81 2697.53,2585.02" disallow="tram rail_urban rail rail_electric ship"/>
    <edge id="edge215" from="node59" to="node58" priority="10" type="highway.trunk_link" numLanes="1" speed="22.22" shape="1912.38,1910.81 1909.39,1913.41 1902.53,1921.78 1900.19,1924.93" disallow="tram rail_urban rail rail_electric bicycle pedestrian ship"/>
    <edge id="edge216" from="node48" to="node61" priority="4" type="highway.residential" numLanes="1" speed="13.41" shape="1389.38,1488.97 1402.53,1484.59 1405.19,1483.54" disallow="tram rail_urban rail rail_electric ship"/>
    <edge id="edge217" from="node61" to="node60" priority="4" type="highway.residential" numLanes="1" speed="13.41" disallow="tram rail_urban rail rail_electric ship"/>
    <edge id="edge218" from="junc3" to="node62" priority="7" type="highway.secondary" numLanes="2" speed="13.41" disallow="tram rail_urban rail rail_electric ship"/>
    <edge id="edge219" from="node62" to="node57" priority="7" type="highway.secondary" numLanes="2" speed="13.41" shape="2587.68,2602.59 2603.33,2599.37 2627.30,2594.84" disallow="tram rail_urban rail rail_electric ship"/>
    <edge id="edge22" from="node6" to="node32" priority="4" type="highway.residential" numLanes="1" speed="13.41" shape="972.21,1599.03 959.30,1611.99 938.88,1623.98 916.66,1625.07 856.38,1617.84" disallow="tram rail_urban rail rail_electric ship"/>
    <edge id="edge220" from="node64" to="node63" priority="9" type="highway.primary" numLanes="2" speed="13.41" disallow="tram rail_urban rail rail_electric ship"/>
    <edge id="edge221" from="node63" to="node65" priority="9" type="highway.primary" numLanes="2" speed="13.41" shape="2637.81,2307.17 2667.87,2370.17 2681.71,2398.66 2713.06,2462.66 2714.98,2466.51" disallow="tram rail_urban rail rail_electric ship"/>