<?xml version="1.0" encoding="UTF-8"?>

<!-- generated on 04/16/20 17:35:05 by SUMO netconvert Version 0.32.0
<?xml version="1.0" encoding="UTF-8"?>

<configuration xmlns:xsi="http://www.w3.org/2001/XMLSchema-instance" xsi:noNamespaceSchemaLocation="http://sumo.dlr.de/xsd/netconvertConfiguration.xsd">

    <input>
        <sumo-net-file value="sellyOak.net.xml"/>
    </input>

    <output>
        <plain-output-prefix value="sellyOak"/>
    </output>

    <processing>
        <no-turnarounds value="true"/>
        <offset.disable-normalization value="true"/>
        <lefthand value="true"/>
        <junctions.corner-detail value="0"/>
        <rectangular-lane-cut value="false"/>
        <walkingareas value="false"/>
    </processing>

</configuration>
-->

<connections version="0.27" xmlns:xsi="http://www.w3.org/2001/XMLSchema-instance" xsi:noNamespaceSchemaLocation="http://sumo.dlr.de/xsd/connections_file.xsd">
    <connection from="edge0" to="edge1" fromLane="0" toLane="0"/>

    <connection from="edge1" to="edge71" fromLane="0" toLane="0"/>
    <connection from="edge1" to="edge71" fromLane="0" toLane="1"/>

    <connection from="edge10" to="edge195" fromLane="0" toLane="1"/>

    <connection from="edge100" to="edge99" fromLane="0" toLane="0"/>

    <connection from="edge101" to="edge3029" fromLane="0" toLane="0"/>
    <connection from="edge101" to="edge3029" fromLane="1" toLane="1"/>

    <connection from="edge102" to="edge3028" fromLane="0" toLane="0"/>
    <connection from="edge102" to="edge3028" fromLane="1" toLane="1"/>

    <connection from="edge103" to="edge58" fromLane="0" toLane="0"/>
    <connection from="edge103" to="edge232" fromLane="1" toLane="0"/>
    <connection from="edge103" to="edge232" fromLane="2" toLane="1"/>

    <connection from="edge104" to="edge234" fromLane="0" toLane="0"/>
    <connection from="edge104" to="edge34" fromLane="0" toLane="0"/>
    <connection from="edge104" to="edge105" fromLane="0" toLane="1"/>

    <connection from="edge105" to="edge2" fromLane="0" toLane="0"/>
    <connection from="edge105" to="edge2" fromLane="1" toLane="1"/>

    <connection from="edge106" to="edge67" fromLane="0" toLane="0"/>

    <connection from="edge107" to="edge277" fromLane="0" toLane="0"/>
    <connection from="edge107" to="edge277" fromLane="1" toLane="1"/>

    <connection from="edge108" to="edge41" fromLane="0" toLane="0"/>
    <connection from="edge108" to="edge41" fromLane="1" toLane="1"/>

    <connection from="edge109" to="edge294" fromLane="0" toLane="0"/>
    <connection from="edge109" to="edge294" fromLane="1" toLane="0"/>

    <connection from="edge11" to="edge12" fromLane="0" toLane="0"/>

    <connection from="edge110" to="edge48" fromLane="0" toLane="0"/>

    <connection from="edge111" to="edge3178" fromLane="0" toLane="0"/>
    <connection from="edge111" to="edge3178" fromLane="0" toLane="1"/>
    <connection from="edge111" to="edge3178" fromLane="1" toLane="2"/>

    <connection from="edge112" to="edge3177" fromLane="0" toLane="0"/>
    <connection from="edge112" to="edge3177" fromLane="1" toLane="1"/>
    <connection from="edge112" to="edge3177" fromLane="1" toLane="2"/>

    <connection from="edge113" to="edge3260" fromLane="0" toLane="0"/>
    <connection from="edge113" to="edge112" fromLane="0" toLane="1"/>

    <connection from="edge114" to="edge112" fromLane="0" toLane="0"/>
    <connection from="edge114" to="edge112" fromLane="1" toLane="1"/>
    <connection from="edge114" to="edge3179" fromLane="2" toLane="0"/>

    <connection from="edge115" to="edge114" fromLane="0" toLane="0"/>
    <connection from="edge115" to="edge114" fromLane="1" toLane="1"/>
    <connection from="edge115" to="edge114" fromLane="1" toLane="2"/>

    <connection from="edge116" to="edge115" fromLane="0" toLane="0"/>
    <connection from="edge116" to="edge3263" fromLane="0" toLane="1"/>

    <connection from="edge117" to="edge3262" fromLane="0" toLane="0"/>
    <connection from="edge117" to="edge115" fromLane="0" toLane="0"/>
    <connection from="edge117" to="edge115" fromLane="1" toLane="1"/>

    <connection from="edge118"/>

    <connection from="edge119"/>

    <connection from="edge12"/>

    <connection from="edge120"/>

    <connection from="edge121" to="edge221" fromLane="0" toLane="0"/>
    <connection from="edge121" to="edge47" fromLane="0" toLane="0"/>

    <connection from="edge122" to="edge85" fromLane="0" toLane="0"/>

    <connection from="edge123" to="edge122" fromLane="0" toLane="0"/>
    <connection from="edge123" to="edge268" fromLane="0" toLane="0"/>

    <connection from="edge124" to="edge123" fromLane="0" toLane="0"/>
    <connection from="edge124" to="edge92" fromLane="0" toLane="0"/>

    <connection from="edge125" to="edge124" fromLane="0" toLane="0"/>
    <connection from="edge125" to="edge274" fromLane="0" toLane="0"/>

    <connection from="edge126" to="edge127" fromLane="0" toLane="0"/>

    <connection from="edge127"/>

    <connection from="edge128" to="edge129" fromLane="0" toLane="0"/>
    <connection from="edge128" to="edge129" fromLane="1" toLane="1"/>

    <connection from="edge129" to="edge49" fromLane="0" toLane="0"/>
    <connection from="edge129" to="edge130" fromLane="0" toLane="0"/>
    <connection from="edge129" to="edge130" fromLane="1" toLane="1"/>
    <connection from="edge129" to="edge215" fromLane="1" toLane="0"/>

    <connection from="edge13" to="edge11" fromLane="0" toLane="0"/>

    <connection from="edge130" to="edge131" fromLane="0" toLane="0"/>
    <connection from="edge130" to="edge131" fromLane="1" toLane="1"/>
    <connection from="edge130" to="edge131" fromLane="1" toLane="2"/>

    <connection from="edge131" to="edge61" fromLane="0" toLane="0"/>
    <connection from="edge131" to="edge61" fromLane="1" toLane="1"/>
    <connection from="edge131" to="edge249" fromLane="2" toLane="0"/>

    <connection from="edge132" to="edge29" fromLane="0" toLane="0"/>

    <connection from="edge133" to="edge3020" fromLane="0" toLane="0"/>

    <connection from="edge134" to="edge266" fromLane="0" toLane="1"/>

    <connection from="edge135" to="edge3119" fromLane="0" toLane="0"/>
    <connection from="edge135" to="edge3119" fromLane="1" toLane="1"/>
    <connection from="edge135" to="edge3119" fromLane="1" toLane="2"/>

    <connection from="edge136" to="edge226" fromLane="0" toLane="0"/>
    <connection from="edge136" to="edge81" fromLane="0" toLane="0"/>
    <connection from="edge136" to="edge102" fromLane="0" toLane="1"/>

    <connection from="edge137" to="edge270" fromLane="0" toLane="0"/>
    <connection from="edge137" to="edge3112" fromLane="0" toLane="0"/>

    <connection from="edge138" to="edge139" fromLane="0" toLane="0"/>

    <connection from="edge139" to="edge230" fromLane="0" toLane="0"/>
    <connection from="edge139" to="edge230" fromLane="0" toLane="1"/>

    <connection from="edge14" to="edge13" fromLane="0" toLane="0"/>

    <connection from="edge140" to="edge141" fromLane="0" toLane="0"/>
    <connection from="edge140" to="edge141" fromLane="1" toLane="1"/>

    <connection from="edge141" to="edge142" fromLane="0" toLane="0"/>
    <connection from="edge141" to="edge142" fromLane="1" toLane="1"/>
    <connection from="edge141" to="edge142" fromLane="1" toLane="2"/>

    <connection from="edge142" to="edge218" fromLane="0" toLane="0"/>
    <connection from="edge142" to="edge218" fromLane="0" toLane="1"/>
    <connection from="edge142" to="edge107" fromLane="0" toLane="0"/>
    <connection from="edge142" to="edge107" fromLane="1" toLane="1"/>
    <connection from="edge142" to="edge106" fromLane="2" toLane="0"/>
    <connection from="edge142" to="edge106" fromLane="2" toLane="1"/>

    <connection from="edge143" to="edge144" fromLane="0" toLane="0"/>
    <connection from="edge143" to="edge144" fromLane="1" toLane="1"/>

    <connection from="edge144" to="edge145" fromLane="0" toLane="0"/>
    <connection from="edge144" to="edge145" fromLane="1" toLane="1"/>

    <connection from="edge145" to="edge146" fromLane="0" toLane="0"/>
    <connection from="edge145" to="edge146" fromLane="1" toLane="1"/>

    <connection from="edge146" to="edge147" fromLane="0" toLane="0"/>
    <connection from="edge146" to="edge147" fromLane="1" toLane="1"/>
    <connection from="edge146" to="edge297" fromLane="1" toLane="0"/>

    <connection from="edge147" to="edge148" fromLane="0" toLane="0"/>
    <connection from="edge147" to="edge148" fromLane="1" toLane="1"/>

    <connection from="edge148" to="edge24" fromLane="0" toLane="0"/>
    <connection from="edge148" to="edge149" fromLane="0" toLane="0"/>
    <connection from="edge148" to="edge149" fromLane="1" toLane="1"/>

    <connection from="edge149" to="edge150" fromLane="0" toLane="0"/>
    <connection from="edge149" to="edge150" fromLane="1" toLane="1"/>
    <connection from="edge149" to="edge311" fromLane="1" toLane="0"/>

    <connection from="edge15" to="edge16" fromLane="0" toLane="0"/>

    <connection from="edge150" to="edge151" fromLane="0" toLane="0"/>
    <connection from="edge150" to="edge151" fromLane="1" toLane="1"/>

    <connection from="edge151" to="edge265" fromLane="0" toLane="0"/>
    <connection from="edge151" to="edge265" fromLane="1" toLane="1"/>
    <connection from="edge151" to="edge278" fromLane="1" toLane="0"/>

    <connection from="edge152" to="edge153" fromLane="0" toLane="0"/>
    <connection from="edge152" to="edge153" fromLane="1" toLane="1"/>

    <connection from="edge153" to="edge154" fromLane="0" toLane="0"/>
    <connection from="edge153" to="edge154" fromLane="1" toLane="1"/>

    <connection from="edge154" to="edge155" fromLane="0" toLane="0"/>
    <connection from="edge154" to="edge155" fromLane="1" toLane="1"/>
    <connection from="edge154" to="edge3265" fromLane="1" toLane="0"/>
    <connection from="edge154" to="edge3265" fromLane="1" toLane="1"/>
    <connection from="edge154" to="edge3265" fromLane="1" toLane="2"/>

    <connection from="edge155" to="edge156" fromLane="0" toLane="0"/>
    <connection from="edge155" to="edge156" fromLane="1" toLane="1"/>

    <connection from="edge156" to="edge120" fromLane="0" toLane="0"/>
    <connection from="edge156" to="edge120" fromLane="1" toLane="1"/>

    <connection from="edge157" to="edge194" fromLane="0" toLane="1"/>

    <connection from="edge158" to="edge290" fromLane="0" toLane="1"/>

    <connection from="edge159" to="edge160" fromLane="0" toLane="0"/>

    <connection from="edge160" to="edge161" fromLane="0" toLane="0"/>

    <connection from="edge161" to="edge162" fromLane="0" toLane="0"/>

    <connection from="edge162" to="edge206" fromLane="0" toLane="0"/>

    <connection from="edge163" to="edge66" fromLane="0" toLane="0"/>
    <connection from="edge163" to="edge164" fromLane="0" toLane="0"/>

    <connection from="edge164" to="edge94" fromLane="0" toLane="0"/>

    <connection from="edge165" to="edge166" fromLane="0" toLane="0"/>

    <connection from="edge166" to="edge169" fromLane="0" toLane="0"/>
    <connection from="edge166" to="edge167" fromLane="0" toLane="0"/>

    <connection from="edge167" to="edge168" fromLane="0" toLane="0"/>
    <connection from="edge167" to="edge170" fromLane="0" toLane="0"/>

    <connection from="edge168" to="edge136" fromLane="0" toLane="0"/>

    <connection from="edge169"/>

    <connection from="edge17" to="edge83" fromLane="0" toLane="0"/>

    <connection from="edge170" to="edge3029" fromLane="0" toLane="0"/>
    <connection from="edge170" to="edge3028" fromLane="0" toLane="1"/>

    <connection from="edge171" to="edge240" fromLane="0" toLane="0"/>

    <connection from="edge172" to="edge173" fromLane="0" toLane="0"/>

    <connection from="edge173" to="edge149" fromLane="0" toLane="0"/>

    <connection from="edge174" to="edge175" fromLane="0" toLane="0"/>
    <connection from="edge174" to="edge175" fromLane="1" toLane="1"/>

    <connection from="edge175" to="edge248" fromLane="0" toLane="0"/>
    <connection from="edge175" to="edge248" fromLane="1" toLane="1"/>
    <connection from="edge175" to="edge279" fromLane="1" toLane="0"/>

    <connection from="edge176" to="edge174" fromLane="0" toLane="0"/>
    <connection from="edge176" to="edge174" fromLane="1" toLane="1"/>

    <connection from="edge177" to="edge178" fromLane="0" toLane="0"/>

    <connection from="edge178" to="edge243" fromLane="0" toLane="0"/>

    <connection from="edge179" to="edge180" fromLane="0" toLane="0"/>

    <connection from="edge18" to="edge17" fromLane="0" toLane="0"/>
    <connection from="edge18" to="edge66" fromLane="0" toLane="0"/>

    <connection from="edge180"/>

    <connection from="edge181" to="edge76" fromLane="0" toLane="0"/>
    <connection from="edge181" to="edge182" fromLane="0" toLane="0"/>

    <connection from="edge182" to="edge105" fromLane="0" toLane="0"/>
    <connection from="edge182" to="edge3117" fromLane="0" toLane="0"/>
    <connection from="edge182" to="edge234" fromLane="0" toLane="1"/>

    <connection from="edge183" to="edge184" fromLane="0" toLane="0"/>
    <connection from="edge183" to="edge184" fromLane="1" toLane="1"/>

    <connection from="edge184" to="edge185" fromLane="0" toLane="0"/>
    <connection from="edge184" to="edge185" fromLane="1" toLane="1"/>
    <connection from="edge184" to="edge42" fromLane="1" toLane="0"/>

    <connection from="edge185" to="edge186" fromLane="0" toLane="0"/>
    <connection from="edge185" to="edge186" fromLane="1" toLane="1"/>

    <connection from="edge186" to="edge189" fromLane="0" toLane="0"/>
    <connection from="edge186" to="edge189" fromLane="1" toLane="1"/>

    <connection from="edge187" to="edge188" fromLane="0" toLane="0"/>
    <connection from="edge187" to="edge188" fromLane="1" toLane="1"/>

    <connection from="edge188" to="edge176" fromLane="0" toLane="0"/>
    <connection from="edge188" to="edge176" fromLane="1" toLane="1"/>
    <connection from="edge188" to="edge3025" fromLane="1" toLane="0"/>

    <connection from="edge189" to="edge190" fromLane="0" toLane="0"/>
    <connection from="edge189" to="edge190" fromLane="1" toLane="1"/>
    <connection from="edge189" to="edge254" fromLane="1" toLane="0"/>

    <connection from="edge19" to="edge101" fromLane="0" toLane="0"/>
    <connection from="edge19" to="edge288" fromLane="0" toLane="0"/>
    <connection from="edge19" to="edge39" fromLane="0" toLane="1"/>

    <connection from="edge190" to="edge191" fromLane="0" toLane="0"/>
    <connection from="edge190" to="edge191" fromLane="1" toLane="1"/>

    <connection from="edge191" to="edge192" fromLane="0" toLane="0"/>
    <connection from="edge191" to="edge192" fromLane="1" toLane="1"/>

    <connection from="edge192" to="edge3172" fromLane="0" toLane="0"/>
    <connection from="edge192" to="edge3172" fromLane="1" toLane="1"/>
    <connection from="edge192" to="edge3172" fromLane="1" toLane="2"/>

    <connection from="edge193" to="edge194" fromLane="0" toLane="0"/>
    <connection from="edge193" to="edge194" fromLane="1" toLane="1"/>
    <connection from="edge193" to="edge9" fromLane="1" toLane="0"/>

    <connection from="edge194" to="edge195" fromLane="0" toLane="0"/>
    <connection from="edge194" to="edge195" fromLane="1" toLane="1"/>
    <connection from="edge194" to="edge158" fromLane="1" toLane="0"/>

    <connection from="edge195" to="edge239" fromLane="0" toLane="0"/>
    <connection from="edge195" to="edge64" fromLane="0" toLane="0"/>
    <connection from="edge195" to="edge64" fromLane="1" toLane="1"/>

    <connection from="edge196" to="edge128" fromLane="0" toLane="0"/>
    <connection from="edge196" to="edge128" fromLane="1" toLane="1"/>
    <connection from="edge196" to="edge244" fromLane="1" toLane="0"/>

    <connection from="edge197" to="edge143" fromLane="0" toLane="0"/>
    <connection from="edge197" to="edge143" fromLane="1" toLane="1"/>

    <connection from="edge198" to="edge132" fromLane="0" toLane="0"/>
    <connection from="edge198" to="edge245" fromLane="0" toLane="0"/>
    <connection from="edge198" to="edge245" fromLane="1" toLane="1"/>
    <connection from="edge198" to="edge245" fromLane="2" toLane="2"/>

    <connection from="edge199" to="edge212" fromLane="0" toLane="0"/>
    <connection from="edge199" to="edge212" fromLane="1" toLane="1"/>
    <connection from="edge199" to="edge212" fromLane="2" toLane="2"/>

    <connection from="edge2" to="edge60" fromLane="0" toLane="0"/>
    <connection from="edge2" to="edge60" fromLane="1" toLane="1"/>

    <connection from="edge20" to="edge19" fromLane="0" toLane="0"/>

    <connection from="edge200" to="edge152" fromLane="0" toLane="0"/>
    <connection from="edge200" to="edge152" fromLane="0" toLane="1"/>
    <connection from="edge200" to="edge208" fromLane="0" toLane="0"/>
    <connection from="edge200" to="edge208" fromLane="1" toLane="1"/>
    <connection from="edge200" to="edge208" fromLane="2" toLane="2"/>

    <connection from="edge201" to="edge202" fromLane="0" toLane="0"/>
    <connection from="edge201" to="edge202" fromLane="0" toLane="1"/>

    <connection from="edge202" to="edge301" fromLane="0" toLane="0"/>
    <connection from="edge202" to="edge301" fromLane="1" toLane="1"/>
    <connection from="edge202" to="edge301" fromLane="1" toLane="2"/>

    <connection from="edge203" to="edge204" fromLane="0" toLane="0"/>
    <connection from="edge203" to="edge204" fromLane="1" toLane="1"/>

    <connection from="edge204" to="edge165" fromLane="0" toLane="0"/>
    <connection from="edge204" to="edge101" fromLane="0" toLane="0"/>
    <connection from="edge204" to="edge101" fromLane="1" toLane="1"/>
    <connection from="edge204" to="edge288" fromLane="1" toLane="0"/>

    <connection from="edge205" to="edge203" fromLane="0" toLane="0"/>
    <connection from="edge205" to="edge203" fromLane="1" toLane="1"/>

    <connection from="edge206" to="edge207" fromLane="0" toLane="0"/>
    <connection from="edge206" to="edge207" fromLane="1" toLane="1"/>
    <connection from="edge206" to="edge207" fromLane="2" toLane="2"/>
    <connection from="edge206" to="edge281" fromLane="2" toLane="0"/>

    <connection from="edge207" to="edge133" fromLane="0" toLane="0"/>
    <connection from="edge207" to="edge199" fromLane="0" toLane="0"/>
    <connection from="edge207" to="edge199" fromLane="1" toLane="1"/>
    <connection from="edge207" to="edge199" fromLane="2" toLane="2"/>

    <connection from="edge208" to="edge209" fromLane="0" toLane="0"/>
    <connection from="edge208" to="edge209" fromLane="1" toLane="1"/>
    <connection from="edge208" to="edge209" fromLane="2" toLane="2"/>

    <connection from="edge209" to="edge210" fromLane="0" toLane="0"/>
    <connection from="edge209" to="edge210" fromLane="1" toLane="1"/>
    <connection from="edge209" to="edge210" fromLane="2" toLane="2"/>

    <connection from="edge21" to="edge20" fromLane="0" toLane="0"/>
    <connection from="edge21" to="edge169" fromLane="0" toLane="0"/>

    <connection from="edge210" to="edge211" fromLane="0" toLane="0"/>
    <connection from="edge210" to="edge211" fromLane="1" toLane="1"/>
    <connection from="edge210" to="edge211" fromLane="2" toLane="2"/>

    <connection from="edge211" to="edge97" fromLane="0" toLane="0"/>
    <connection from="edge211" to="edge97" fromLane="1" toLane="1"/>
    <connection from="edge211" to="edge97" fromLane="2" toLane="2"/>
    <connection from="edge211" to="edge14" fromLane="2" toLane="0"/>

    <connection from="edge212" to="edge213" fromLane="0" toLane="0"/>
    <connection from="edge212" to="edge213" fromLane="1" toLane="1"/>
    <connection from="edge212" to="edge213" fromLane="2" toLane="2"/>

    <connection from="edge213" to="edge242" fromLane="0" toLane="0"/>
    <connection from="edge213" to="edge242" fromLane="1" toLane="1"/>
    <connection from="edge213" to="edge242" fromLane="2" toLane="2"/>

    <connection from="edge214" to="edge3173" fromLane="0" toLane="0"/>
    <connection from="edge214" to="edge3173" fromLane="1" toLane="1"/>
    <connection from="edge214" to="edge3173" fromLane="1" toLane="2"/>

    <connection from="edge215" to="edge185" fromLane="0" toLane="1"/>

    <connection from="edge216" to="edge217" fromLane="0" toLane="0"/>

    <connection from="edge217"/>

    <connection from="edge218" to="edge219" fromLane="0" toLane="0"/>
    <connection from="edge218" to="edge219" fromLane="1" toLane="1"/>

    <connection from="edge219" to="edge214" fromLane="0" toLane="0"/>
    <connection from="edge219" to="edge214" fromLane="1" toLane="1"/>

    <connection from="edge22" to="edge170" fromLane="0" toLane="0"/>
    <connection from="edge22" to="edge21" fromLane="0" toLane="0"/>

    <connection from="edge220" to="edge3352" fromLane="0" toLane="0"/>
    <connection from="edge220" to="edge221" fromLane="0" toLane="0"/>
    <connection from="edge220" to="edge221" fromLane="1" toLane="1"/>

    <connection from="edge221" to="edge3176" fromLane="0" toLane="0"/>
    <connection from="edge221" to="edge3176" fromLane="1" toLane="1"/>
    <connection from="edge221" to="edge3176" fromLane="1" toLane="2"/>

    <connection from="edge222" to="edge130" fromLane="0" toLane="0"/>
    <connection from="edge222" to="edge215" fromLane="0" toLane="0"/>

    <connection from="edge223" to="edge222" fromLane="0" toLane="0"/>

    <connection from="edge224" to="edge289" fromLane="0" toLane="0"/>
    <connection from="edge224" to="edge238" fromLane="0" toLane="0"/>

    <connection from="edge225.0" to="edge225.34" fromLane="0" toLane="0"/>

    <connection from="edge225.34" to="edge224" fromLane="0" toLane="0"/>

    <connection from="edge226" to="edge227" fromLane="0" toLane="0"/>

    <connection from="edge227" to="edge228" fromLane="0" toLane="0"/>
    <connection from="edge227" to="edge285" fromLane="0" toLane="0"/>

    <connection from="edge228" to="edge229" fromLane="0" toLane="0"/>
    <connection from="edge228" to="edge229" fromLane="0" toLane="1"/>

    <connection from="edge229" to="edge103" fromLane="0" toLane="0"/>
    <connection from="edge229" to="edge103" fromLane="1" toLane="1"/>
    <connection from="edge229" to="edge286" fromLane="1" toLane="0"/>

    <connection from="edge23" to="edge167" fromLane="0" toLane="0"/>
    <connection from="edge23" to="edge20" fromLane="0" toLane="0"/>

    <connection from="edge230" to="edge231" fromLane="0" toLane="0"/>
    <connection from="edge230" to="edge231" fromLane="1" toLane="1"/>

    <connection from="edge231" to="edge232" fromLane="0" toLane="0"/>
    <connection from="edge231" to="edge232" fromLane="1" toLane="1"/>
    <connection from="edge231" to="edge3113" fromLane="1" toLane="0"/>

    <connection from="edge232" to="edge233" fromLane="0" toLane="0"/>
    <connection from="edge232" to="edge233" fromLane="1" toLane="1"/>

    <connection from="edge233" to="edge135" fromLane="0" toLane="0"/>
    <connection from="edge233" to="edge135" fromLane="1" toLane="1"/>

    <connection from="edge234" to="edge235" fromLane="0" toLane="0"/>
    <connection from="edge234" to="edge235" fromLane="1" toLane="1"/>

    <connection from="edge235" to="edge236" fromLane="0" toLane="0"/>
    <connection from="edge235" to="edge236" fromLane="1" toLane="1"/>

    <connection from="edge236" to="edge249" fromLane="0" toLane="0"/>
    <connection from="edge236" to="edge183" fromLane="0" toLane="0"/>
    <connection from="edge236" to="edge183" fromLane="1" toLane="1"/>

    <connection from="edge237" to="edge179" fromLane="0" toLane="0"/>

    <connection from="edge238" to="edge239" fromLane="0" toLane="0"/>

    <connection from="edge239" to="edge220" fromLane="0" toLane="0"/>
    <connection from="edge239" to="edge220" fromLane="0" toLane="1"/>

    <connection from="edge24" to="edge25" fromLane="0" toLane="0"/>

    <connection from="edge240" to="edge164" fromLane="0" toLane="0"/>
    <connection from="edge240" to="edge17" fromLane="0" toLane="0"/>

    <connection from="edge241" to="edge143" fromLane="0" toLane="0"/>

    <connection from="edge242" to="edge171" fromLane="0" toLane="0"/>
    <connection from="edge242" to="edge197" fromLane="1" toLane="0"/>
    <connection from="edge242" to="edge197" fromLane="2" toLane="1"/>

    <connection from="edge243" to="edge200" fromLane="0" toLane="0"/>

    <connection from="edge244" to="edge189" fromLane="0" toLane="1"/>

    <connection from="edge245" to="edge200" fromLane="0" toLane="0"/>
    <connection from="edge245" to="edge200" fromLane="1" toLane="1"/>
    <connection from="edge245" to="edge200" fromLane="2" toLane="2"/>

    <connection from="edge246" to="edge247" fromLane="0" toLane="0"/>
    <connection from="edge246" to="edge247" fromLane="1" toLane="1"/>

    <connection from="edge247" to="edge3171" fromLane="0" toLane="0"/>
    <connection from="edge247" to="edge3171" fromLane="1" toLane="1"/>
    <connection from="edge247" to="edge3171" fromLane="1" toLane="2"/>

    <connection from="edge248" to="edge205" fromLane="0" toLane="0"/>
    <connection from="edge248" to="edge205" fromLane="1" toLane="1"/>

    <connection from="edge249" to="edge250" fromLane="0" toLane="0"/>

    <connection from="edge25"/>

    <connection from="edge250" to="edge126" fromLane="0" toLane="0"/>

    <connection from="edge251" to="edge118" fromLane="0" toLane="0"/>
    <connection from="edge251" to="edge252" fromLane="0" toLane="0"/>
    <connection from="edge251" to="edge252" fromLane="1" toLane="1"/>

    <connection from="edge252" to="edge119" fromLane="0" toLane="0"/>
    <connection from="edge252" to="edge253" fromLane="0" toLane="0"/>
    <connection from="edge252" to="edge253" fromLane="0" toLane="1"/>
    <connection from="edge252" to="edge253" fromLane="1" toLane="2"/>
    <connection from="edge252" to="edge3350" fromLane="1" toLane="0"/>

    <connection from="edge253" to="edge97" fromLane="0" toLane="0"/>
    <connection from="edge253" to="edge97" fromLane="0" toLane="1"/>
    <connection from="edge253" to="edge97" fromLane="0" toLane="2"/>
    <connection from="edge253" to="edge14" fromLane="0" toLane="0"/>
    <connection from="edge253" to="edge206" fromLane="1" toLane="0"/>
    <connection from="edge253" to="edge206" fromLane="1" toLane="1"/>
    <connection from="edge253" to="edge206" fromLane="2" toLane="2"/>

    <connection from="edge254" to="edge193" fromLane="0" toLane="1"/>
    <connection from="edge254" to="edge196" fromLane="0" toLane="1"/>

    <connection from="edge255" to="edge256" fromLane="0" toLane="0"/>
    <connection from="edge255" to="edge256" fromLane="1" toLane="1"/>

    <connection from="edge256" to="edge257" fromLane="0" toLane="0"/>
    <connection from="edge256" to="edge257" fromLane="1" toLane="1"/>
    <connection from="edge256" to="edge134" fromLane="1" toLane="0"/>

    <connection from="edge257" to="edge237" fromLane="0" toLane="0"/>
    <connection from="edge257" to="edge317" fromLane="0" toLane="0"/>
    <connection from="edge257" to="edge317" fromLane="1" toLane="1"/>
    <connection from="edge257" to="edge84" fromLane="1" toLane="0"/>

    <connection from="edge258" to="edge259" fromLane="0" toLane="0"/>
    <connection from="edge258" to="edge259" fromLane="1" toLane="1"/>

    <connection from="edge259" to="edge193" fromLane="0" toLane="0"/>
    <connection from="edge259" to="edge196" fromLane="0" toLane="0"/>
    <connection from="edge259" to="edge196" fromLane="1" toLane="1"/>

    <connection from="edge26" to="edge28" fromLane="0" toLane="0"/>
    <connection from="edge26" to="edge28" fromLane="1" toLane="1"/>

    <connection from="edge262" to="edge88" fromLane="0" toLane="0"/>
    <connection from="edge262" to="edge263" fromLane="0" toLane="0"/>

    <connection from="edge263" to="edge181" fromLane="0" toLane="0"/>
    <connection from="edge263" to="edge216" fromLane="0" toLane="0"/>

    <connection from="edge264" to="edge295" fromLane="0" toLane="0"/>
    <connection from="edge264" to="edge295" fromLane="1" toLane="1"/>
    <connection from="edge264" to="edge295" fromLane="2" toLane="2"/>

    <connection from="edge265" to="edge266" fromLane="0" toLane="0"/>
    <connection from="edge265" to="edge266" fromLane="1" toLane="1"/>

    <connection from="edge266" to="edge267" fromLane="0" toLane="0"/>
    <connection from="edge266" to="edge267" fromLane="1" toLane="1"/>

    <connection from="edge268" to="edge38" fromLane="0" toLane="0"/>
    <connection from="edge268" to="edge204" fromLane="0" toLane="1"/>

    <connection from="edge269" to="edge182" fromLane="0" toLane="0"/>
    <connection from="edge269" to="edge33" fromLane="0" toLane="0"/>

    <connection from="edge27" to="edge26" fromLane="0" toLane="0"/>
    <connection from="edge27" to="edge26" fromLane="1" toLane="1"/>

    <connection from="edge270" to="edge271" fromLane="0" toLane="0"/>

    <connection from="edge271"/>

    <connection from="edge272" to="edge273" fromLane="0" toLane="0"/>

    <connection from="edge273" to="edge138" fromLane="0" toLane="0"/>

    <connection from="edge274" to="edge275" fromLane="0" toLane="0"/>

    <connection from="edge275" to="edge102" fromLane="0" toLane="0"/>
    <connection from="edge275" to="edge3" fromLane="0" toLane="0"/>
    <connection from="edge275" to="edge226" fromLane="0" toLane="0"/>

    <connection from="edge276" to="edge163" fromLane="0" toLane="0"/>
