<?xml version="1.0" encoding="UTF-8"?>

<!-- generated on Mon 04 Jun 2018 22:46:50 BST by Netedit Version 0.28.0
<?xml version="1.0" encoding="UTF-8"?>

<configuration xmlns:xsi="http://www.w3.org/2001/XMLSchema-instance" xsi:noNamespaceSchemaLocation="http://sumo.dlr.de/xsd/netedit.exeConfiguration.xsd">

    <input>
        <sumo-net-file value="../2_models/sellyOak/sellyOak.net.xml"/>
    </input>

    <output>
        <output-file value="../2_models/sellyOak/sellyOak.net.xml"/>
    </output>

    <processing>
        <no-turnarounds value="true"/>
        <offset.disable-normalization value="true"/>
        <lefthand value="true"/>
        <junctions.corner-detail value="0"/>
    </processing>

</configuration>
-->

<net version="0.27" lefthand="true" xmlns:xsi="http://www.w3.org/2001/XMLSchema-instance" xsi:noNamespaceSchemaLocation="http://sumo.dlr.de/xsd/net_file.xsd">

    <location netOffset="-571510.31,5809675.96" convBoundary="9.48,124.68,3027.35,2863.23" origBoundary="-1.948073,52.432516,-1.904730,52.460523" projParameter="+proj=utm +zone=30 +ellps=WGS84 +datum=WGS84 +units=m +no_defs"/>

    <edge id=":gneJ0_0" function="internal">
        <lane id=":gneJ0_0_0" index="0" disallow="tram rail_urban rail rail_electric ship" speed="13.41" length="0.30" shape="2463.48,1947.63 2463.34,1947.36"/>
    </edge>
    <edge id=":gneJ0_1" function="internal">
        <lane id=":gneJ0_1_0" index="0" disallow="tram rail_urban rail rail_electric ship" speed="13.41" length="0.30" shape="2460.40,1948.87 2460.54,1949.14"/>
    </edge>
    <edge id=":junc0_0" function="internal">
        <lane id=":junc0_0_0" index="0" disallow="tram rail_urban rail rail_electric ship" speed="11.18" length="5.54" shape="926.80,1406.20 925.86,1407.51 924.83,1408.03 923.71,1407.76 922.50,1406.69"/>
    </edge>
    <edge id=":junc0_1" function="internal">
        <lane id=":junc0_1_0" index="0" disallow="tram rail_urban rail rail_electric ship" speed="11.18" length="17.15" shape="926.80,1406.20 924.79,1409.79 922.32,1413.57 919.51,1417.05 916.49,1419.75"/>
    </edge>
    <edge id=":junc0_2" function="internal">
        <lane id=":junc0_2_0" index="0" speed="11.18" length="15.08" shape="926.80,1406.20 924.82,1410.73 923.96,1414.61 924.22,1417.84 925.61,1420.41"/>
    </edge>
    <edge id=":junc0_3" function="internal">
        <lane id=":junc0_3_0" index="0" disallow="tram rail_urban rail rail_electric ship" speed="11.18" length="8.97" shape="930.59,1416.08 929.31,1414.15 928.74,1412.11 928.88,1409.98 929.73,1407.73"/>
    </edge>
    <edge id=":junc0_4" function="internal">
        <lane id=":junc0_4_0" index="0" disallow="tram rail_urban rail rail_electric ship" speed="13.41" length="12.41" shape="930.59,1416.08 922.50,1406.69"/>
        <lane id=":junc0_4_1" index="1" disallow="tram rail_urban rail rail_electric ship" speed="13.41" length="12.41" shape="928.10,1418.25 919.99,1408.83"/>
    </edge>
    <edge id=":junc0_6" function="internal">
        <lane id=":junc0_6_0" index="0" disallow="tram rail_urban rail rail_electric ship" speed="13.41" length="12.81" shape="928.10,1418.25 926.04,1416.81 923.42,1416.58 920.24,1417.56 916.49,1419.75"/>
    </edge>
    <edge id=":junc0_7" function="internal">
        <lane id=":junc0_7_0" index="0" speed="13.41" length="4.94" shape="918.69,1422.23 919.94,1421.59 921.09,1421.43 922.15,1421.76 923.12,1422.58"/>
    </edge>
    <edge id=":junc0_8" function="internal">
        <lane id=":junc0_8_0" index="0" disallow="tram rail_urban rail rail_electric ship" speed="11.18" length="18.34" shape="918.69,1422.23 921.83,1419.39 924.88,1415.58 927.60,1411.47 929.73,1407.73"/>
    </edge>
    <edge id=":junc0_9" function="internal">
        <lane id=":junc0_9_0" index="0" disallow="tram rail_urban rail rail_electric ship" speed="13.41" length="15.73" shape="918.69,1422.23 921.78,1419.32 923.03,1416.11 922.43,1412.62 919.99,1408.83"/>
    </edge>
    <edge id=":junc0_10" function="internal">
        <lane id=":junc0_10_0" index="0" disallow="tram rail_urban rail rail_electric ship" speed="13.41" length="7.64" shape="914.98,1413.13 916.62,1415.35 917.42,1417.19 917.37,1418.65 916.49,1419.75"/>
    </edge>
    <edge id=":junc0_11" function="internal">
        <lane id=":junc0_11_0" index="0" speed="13.41" length="12.46" shape="914.98,1413.13 923.12,1422.58"/>
        <lane id=":junc0_11_1" index="1" speed="13.41" length="12.46" shape="917.49,1410.98 925.61,1420.41"/>
    </edge>
    <edge id=":junc0_13" function="internal">
        <lane id=":junc0_13_0" index="0" disallow="tram rail_urban rail rail_electric ship" speed="11.18" length="16.07" shape="917.49,1410.98 920.70,1413.64 923.81,1413.99 926.82,1412.02 929.73,1407.73"/>
    </edge>
    <edge id=":junc1_0" function="internal">
        <lane id=":junc1_0_0" index="0" disallow="tram rail_urban rail rail_electric ship" speed="13.41" length="5.16" shape="710.06,1093.41 708.79,1094.10 707.65,1094.18 706.65,1093.65 705.77,1092.51"/>
    </edge>
    <edge id=":junc1_1" function="internal">
        <lane id=":junc1_1_0" index="0" disallow="tram rail_urban rail rail_electric ship" speed="13.41" length="13.33" shape="710.06,1093.41 706.72,1096.36 704.83,1099.19 704.38,1101.88 705.36,1104.45"/>
    </edge>
    <edge id=":junc1_2" function="internal">
        <lane id=":junc1_2_0" index="0" speed="13.41" length="5.44" shape="710.82,1100.74 710.26,1099.50 710.27,1098.31 710.86,1097.17 712.03,1096.06"/>
    </edge>
    <edge id=":junc1_3" function="internal">
        <lane id=":junc1_3_0" index="0" disallow="tram rail_urban rail rail_electric ship" speed="13.41" length="9.80" shape="710.82,1100.74 705.77,1092.51"/>
        <lane id=":junc1_3_1" index="1" disallow="tram rail_urban rail rail_electric ship" speed="13.41" length="9.80" shape="708.09,1102.59 702.89,1094.13"/>
    </edge>
    <edge id=":junc1_5" function="internal">
        <lane id=":junc1_5_0" index="0" disallow="tram rail_urban rail rail_electric ship" speed="13.41" length="10.35" shape="697.14,1097.37 702.63,1106.30"/>
        <lane id=":junc1_5_1" index="1" disallow="tram rail_urban rail rail_electric ship" speed="13.41" length="10.35" shape="700.02,1095.75 705.36,1104.45"/>
    </edge>
    <edge id=":junc1_7" function="internal">
        <lane id=":junc1_7_0" index="0" speed="13.41" length="13.98" shape="700.02,1095.75 702.15,1098.21 704.86,1099.08 708.15,1098.37 712.03,1096.06"/>
    </edge>
    <edge id=":junc10_0" function="internal">
        <lane id=":junc10_0_0" index="0" disallow="tram rail_urban rail rail_electric bicycle pedestrian ship" speed="13.41" length="35.96" shape="530.88,735.35 523.32,770.28"/>
        <lane id=":junc10_0_1" index="1" disallow="tram rail_urban rail rail_electric bicycle pedestrian ship" speed="13.41" length="35.96" shape="534.11,736.02 526.43,771.36"/>
    </edge>
    <edge id=":junc10_2" function="internal">
        <lane id=":junc10_2_0" index="0" disallow="tram rail_urban rail rail_electric bicycle pedestrian ship" speed="13.41" length="31.61" shape="537.35,736.68 534.83,749.72 533.32,759.42 532.80,765.79 533.29,768.82"/>
        <lane id=":junc10_2_1" index="1" disallow="tram rail_urban rail rail_electric bicycle pedestrian ship" speed="13.41" length="31.61" shape="537.35,736.68 535.34,747.95 534.44,756.74 534.65,763.05 535.97,766.89"/>
    </edge>
    <edge id=":junc10_4" function="internal">
        <lane id=":junc10_4_0" index="0" disallow="tram rail_urban rail rail_electric bicycle pedestrian ship" speed="13.41" length="30.44" shape="543.91,761.16 526.85,736.12"/>
        <lane id=":junc10_4_1" index="1" disallow="tram rail_urban rail rail_electric bicycle pedestrian ship" speed="13.41" length="30.44" shape="541.24,763.09 524.09,737.93"/>
        <lane id=":junc10_4_2" index="2" disallow="tram rail_urban rail rail_electric bicycle pedestrian ship" speed="13.41" length="30.44" shape="538.56,765.02 521.33,739.74"/>
    </edge>
    <edge id=":junc10_7" function="internal">
        <lane id=":junc10_7_0" index="0" disallow="tram rail_urban rail rail_electric bicycle pedestrian ship" speed="13.41" length="28.71" shape="513.26,745.04 518.48,753.71 521.90,760.81 523.51,766.33 523.32,770.28"/>
        <lane id=":junc10_7_1" index="1" disallow="tram rail_urban rail rail_electric bicycle pedestrian ship" speed="13.41" length="28.71" shape="513.26,745.04 519.53,755.10 523.81,762.84 526.11,768.26 526.43,771.36"/>
    </edge>
    <edge id=":junc10_9" function="internal">
        <lane id=":junc10_9_0" index="0" disallow="tram rail_urban rail rail_electric bicycle pedestrian ship" speed="13.41" length="30.87" shape="513.26,745.04 530.61,770.75"/>
        <lane id=":junc10_9_1" index="1" disallow="tram rail_urban rail rail_electric bicycle pedestrian ship" speed="13.41" length="30.87" shape="516.02,743.23 533.29,768.82"/>
        <lane id=":junc10_9_2" index="2" disallow="tram rail_urban rail rail_electric bicycle pedestrian ship" speed="13.41" length="30.87" shape="518.78,741.42 535.97,766.89"/>
    </edge>
    <edge id=":junc11_0" function="internal">
        <lane id=":junc11_0_0" index="0" disallow="tram rail_urban rail rail_electric bicycle pedestrian ship" speed="13.41" length="37.71" shape="587.63,836.92 582.23,832.12 572.88,825.34 563.26,818.85 557.07,814.92"/>
    </edge>
    <edge id=":junc11_1" function="internal">
        <lane id=":junc11_1_0" index="0" disallow="tram rail_urban rail rail_electric bicycle pedestrian ship" speed="13.41" length="44.59" shape="559.68,812.17 584.43,849.44"/>
        <lane id=":junc11_1_1" index="1" disallow="tram rail_urban rail rail_electric bicycle pedestrian ship" speed="13.41" length="44.59" shape="562.43,810.34 587.09,847.48"/>
        <lane id=":junc11_1_2" index="2" disallow="tram rail_urban rail rail_electric bicycle pedestrian ship" speed="13.41" length="44.59" shape="565.17,808.51 589.75,845.53"/>
    </edge>
    <edge id=":junc12_0" function="internal">
        <lane id=":junc12_0_0" index="0" speed="13.41" length="10.57" shape="2763.37,2552.43 2760.12,2553.39 2757.65,2553.67 2755.93,2553.28 2754.98,2552.21"/>
        <lane id=":junc12_0_1" index="1" speed="13.41" length="10.57" shape="2763.37,2552.43 2758.77,2553.88 2755.33,2554.54 2753.04,2554.39 2751.92,2553.45"/>
    </edge>
    <edge id=":junc12_2" function="internal">
        <lane id=":junc12_2_0" index="0" speed="13.41" length="24.22" shape="2763.37,2552.43 2756.54,2555.42 2751.92,2558.29 2747.67,2561.03 2741.96,2563.65"/>
        <lane id=":junc12_2_1" index="1" speed="13.41" length="24.22" shape="2764.48,2555.54 2757.66,2558.53 2753.04,2561.39 2748.80,2564.13 2743.09,2566.75"/>
    </edge>
    <edge id=":junc12_4" function="internal">
        <lane id=":junc12_4_0" index="0" speed="13.41" length="22.24" shape="2765.59,2558.64 2758.74,2561.95 2754.69,2565.94 2753.45,2570.64 2755.01,2576.02"/>
        <lane id=":junc12_4_1" index="1" speed="13.41" length="22.24" shape="2765.59,2558.64 2760.10,2561.43 2756.99,2565.00 2756.28,2569.36 2757.95,2574.50"/>
    </edge>
    <edge id=":junc12_6" function="internal">
        <lane id=":junc12_6_0" index="0" speed="13.41" length="7.67" shape="2766.74,2569.96 2766.03,2568.15 2765.98,2566.69 2766.57,2565.60 2767.82,2564.86"/>
        <lane id=":junc12_6_1" index="1" speed="13.41" length="7.67" shape="2766.74,2569.96 2765.39,2566.84 2764.94,2564.44 2765.37,2562.74 2766.70,2561.75"/>
    </edge>
    <edge id=":junc12_8" function="internal">
        <lane id=":junc12_8_0" index="0" speed="13.41" length="21.52" shape="2766.74,2569.96 2763.37,2564.50 2760.43,2561.01 2757.71,2557.56 2754.98,2552.21"/>
        <lane id=":junc12_8_1" index="1" speed="13.41" length="21.52" shape="2763.81,2571.47 2760.38,2565.91 2757.41,2562.34 2754.66,2558.83 2751.92,2553.45"/>
    </edge>
    <edge id=":junc12_10" function="internal">
        <lane id=":junc12_10_0" index="0" speed="13.41" length="22.15" shape="2760.88,2572.99 2757.05,2567.29 2752.62,2563.83 2747.59,2562.62 2741.96,2563.65"/>
        <lane id=":junc12_10_1" index="1" speed="13.41" length="22.15" shape="2760.88,2572.99 2757.69,2568.59 2753.67,2566.09 2748.80,2565.47 2743.09,2566.75"/>
    </edge>
    <edge id=":junc12_12" function="internal">
        <lane id=":junc12_12_0" index="0" speed="13.41" length="10.58" shape="2746.46,2576.06 2749.70,2575.07 2752.21,2574.74 2753.98,2575.06 2755.01,2576.02"/>
        <lane id=":junc12_12_1" index="1" speed="13.41" length="10.58" shape="2746.46,2576.06 2751.06,2574.55 2754.51,2573.79 2756.80,2573.78 2757.95,2574.50"/>
    </edge>
    <edge id=":junc12_14" function="internal">
        <lane id=":junc12_14_0" index="0" speed="13.41" length="24.18" shape="2746.46,2576.06 2753.26,2573.05 2757.86,2570.18 2762.10,2567.45 2767.82,2564.86"/>
        <lane id=":junc12_14_1" index="1" speed="13.41" length="24.18" shape="2745.34,2572.96 2752.13,2569.94 2756.74,2567.08 2760.99,2564.35 2766.70,2561.75"/>
    </edge>
    <edge id=":junc12_16" function="internal">
        <lane id=":junc12_16_0" index="0" speed="13.41" length="22.25" shape="2744.21,2569.85 2750.74,2566.63 2754.71,2562.61 2756.12,2557.81 2754.98,2552.21"/>
        <lane id=":junc12_16_1" index="1" speed="13.41" length="22.25" shape="2744.21,2569.85 2749.38,2567.13 2752.39,2563.48 2753.24,2558.92 2751.92,2553.45"/>
    </edge>
    <edge id=":junc12_18" function="internal">
        <lane id=":junc12_18_0" index="0" speed="13.41" length="8.85" shape="2742.74,2557.16 2743.51,2559.59 2743.64,2561.49 2743.12,2562.84 2741.96,2563.65"/>
        <lane id=":junc12_18_1" index="1" speed="13.41" length="8.85" shape="2742.74,2557.16 2744.05,2560.94 2744.54,2563.79 2744.22,2565.73 2743.09,2566.75"/>
    </edge>
    <edge id=":junc12_20" function="internal">
        <lane id=":junc12_20_0" index="0" speed="13.41" length="22.44" shape="2742.74,2557.16 2745.79,2563.26 2748.74,2567.17 2751.75,2570.79 2755.01,2576.02"/>
        <lane id=":junc12_20_1" index="1" speed="13.41" length="22.44" shape="2745.80,2555.92 2748.81,2561.92 2751.71,2565.74 2754.69,2569.30 2757.95,2574.50"/>
    </edge>
    <edge id=":junc12_22" function="internal">
        <lane id=":junc12_22_0" index="0" speed="13.41" length="22.98" shape="2748.86,2554.68 2752.29,2560.88 2756.60,2564.64 2761.77,2565.96 2767.82,2564.86"/>
        <lane id=":junc12_22_1" index="1" speed="13.41" length="22.98" shape="2748.86,2554.68 2751.76,2559.53 2755.70,2562.33 2760.68,2563.07 2766.70,2561.75"/>
    </edge>
    <edge id=":junc2_0" function="internal">
        <lane id=":junc2_0_0" index="0" disallow="tram rail_urban rail rail_electric ship" speed="8.94" length="5.26" shape="124.58,319.25 120.22,322.19"/>
    </edge>
    <edge id=":junc2_1" function="internal">
        <lane id=":junc2_1_0" index="0" speed="15.58" length="4.95" shape="122.04,324.94 123.25,324.64 124.18,325.19 125.18,325.90 126.57,326.03"/>
    </edge>
    <edge id=":junc3_0" function="internal">
        <lane id=":junc3_0_0" index="0" speed="13.41" length="14.58" shape="2553.98,2599.71 2548.82,2600.40 2544.94,2600.58 2542.34,2600.25 2541.02,2599.42"/>
        <lane id=":junc3_0_1" index="1" speed="13.41" length="14.58" shape="2553.98,2599.71 2547.32,2600.72 2542.48,2601.31 2539.45,2601.46 2538.23,2601.18"/>
    </edge>
    <edge id=":junc3_2" function="internal">
        <lane id=":junc3_2_0" index="0" speed="13.41" length="27.20" shape="2553.98,2599.71 2545.60,2601.78 2539.73,2604.53 2534.74,2607.73 2529.00,2611.16"/>
        <lane id=":junc3_2_1" index="1" speed="13.41" length="27.20" shape="2554.51,2602.97 2546.51,2604.95 2540.95,2607.59 2536.18,2610.69 2530.53,2614.09"/>
    </edge>
    <edge id=":junc3_4" function="internal">
        <lane id=":junc3_4_0" index="0" disallow="tram rail_urban rail rail_electric bicycle pedestrian ship" speed="13.41" length="23.68" shape="2555.04,2606.22 2547.11,2608.41 2542.35,2611.88 2540.76,2616.63 2542.33,2622.66"/>
        <lane id=":junc3_4_1" index="1" disallow="tram rail_urban rail rail_electric bicycle pedestrian ship" speed="13.41" length="23.68" shape="2555.04,2606.22 2548.57,2608.11 2544.79,2611.25 2543.71,2615.63 2545.32,2621.25"/>
    </edge>
    <edge id=":junc3_6" function="internal">
        <lane id=":junc3_6_0" index="0" disallow="tram rail_urban rail rail_electric ship" speed="13.41" length="7.43" shape="2554.27,2617.02 2553.72,2615.36 2553.85,2614.10 2554.64,2613.22 2556.10,2612.74"/>
        <lane id=":junc3_6_1" index="1" disallow="tram rail_urban rail rail_electric ship" speed="13.41" length="7.43" shape="2554.27,2617.02 2553.14,2613.99 2552.98,2611.73 2553.79,2610.23 2555.57,2609.48"/>
    </edge>
    <edge id=":junc3_8" function="internal">
        <lane id=":junc3_8_0" index="0" speed="13.41" length="21.92" shape="2554.27,2617.02 2550.96,2611.26 2547.87,2607.66 2544.67,2604.35 2541.02,2599.42"/>
        <lane id=":junc3_8_1" index="1" speed="13.41" length="21.92" shape="2551.28,2618.43 2548.04,2612.80 2545.01,2609.31 2541.86,2606.07 2538.23,2601.18"/>
    </edge>
    <edge id=":junc3_10" function="internal">
        <lane id=":junc3_10_0" index="0" speed="13.41" length="22.88" shape="2548.30,2619.84 2544.43,2613.66 2539.92,2610.15 2534.78,2609.32 2529.00,2611.16"/>
        <lane id=":junc3_10_1" index="1" speed="13.41" length="22.88" shape="2548.30,2619.84 2545.05,2614.96 2541.01,2612.37 2536.17,2612.08 2530.53,2614.09"/>
    </edge>
    <edge id=":junc3_12" function="internal">
        <lane id=":junc3_12_0" index="0" disallow="tram rail_urban rail rail_electric bicycle pedestrian ship" speed="13.41" length="9.56" shape="2535.12,2622.86 2537.77,2621.70 2539.85,2621.28 2541.38,2621.60 2542.33,2622.66"/>
        <lane id=":junc3_12_1" index="1" disallow="tram rail_urban rail rail_electric bicycle pedestrian ship" speed="13.41" length="9.56" shape="2535.12,2622.86 2539.05,2621.04 2542.06,2620.16 2544.15,2620.23 2545.32,2621.25"/>
    </edge>
    <edge id=":junc3_14" function="internal">
        <lane id=":junc3_14_0" index="0" disallow="tram rail_urban rail rail_electric ship" speed="13.41" length="23.82" shape="2535.12,2622.86 2556.10,2612.74"/>
        <lane id=":junc3_14_1" index="1" disallow="tram rail_urban rail rail_electric ship" speed="13.41" length="23.82" shape="2533.59,2619.94 2555.57,2609.48"/>
    </edge>
    <edge id=":junc3_16" function="internal">
        <lane id=":junc3_16_0" index="0" speed="13.41" length="21.16" shape="2532.06,2617.01 2538.27,2612.96 2541.83,2608.68 2542.75,2604.17 2541.02,2599.42"/>
        <lane id=":junc3_16_1" index="1" speed="13.41" length="21.16" shape="2532.06,2617.01 2536.99,2613.65 2539.67,2609.89 2540.08,2605.73 2538.23,2601.18"/>
    </edge>
    <edge id=":junc3_18" function="internal">
        <lane id=":junc3_18_0" index="0" speed="13.41" length="7.08" shape="2529.84,2606.44 2530.55,2607.94 2530.65,2609.23 2530.13,2610.31 2529.00,2611.16"/>
        <lane id=":junc3_18_1" index="1" speed="13.41" length="7.08" shape="2529.84,2606.44 2531.30,2609.18 2531.91,2611.37 2531.65,2613.00 2530.53,2614.09"/>
    </edge>
    <edge id=":junc3_20" function="internal">
        <lane id=":junc3_20_0" index="0" disallow="tram rail_urban rail rail_electric bicycle pedestrian ship" speed="13.41" length="20.76" shape="2529.84,2606.44 2533.49,2611.36 2536.52,2614.41 2539.34,2617.53 2542.33,2622.66"/>
        <lane id=":junc3_20_1" index="1" disallow="tram rail_urban rail rail_electric bicycle pedestrian ship" speed="13.41" length="20.76" shape="2532.64,2604.68 2536.36,2609.73 2539.45,2612.89 2542.31,2616.09 2545.32,2621.25"/>
    </edge>
    <edge id=":junc3_22" function="internal">
        <lane id=":junc3_22_0" index="0" disallow="tram rail_urban rail rail_electric ship" speed="13.41" length="23.42" shape="2535.43,2602.93 2539.53,2608.02 2544.35,2611.36 2549.87,2612.93 2556.10,2612.74"/>
        <lane id=":junc3_22_1" index="1" disallow="tram rail_urban rail rail_electric ship" speed="13.41" length="23.42" shape="2535.43,2602.93 2538.79,2606.68 2543.26,2609.02 2548.86,2609.96 2555.57,2609.48"/>
    </edge>
    <edge id=":junc4_0" function="internal">
        <lane id=":junc4_0_0" index="0" disallow="tram rail_urban rail rail_electric bicycle pedestrian ship" speed="13.41" length="16.80" shape="1224.16,1606.92 1207.60,1609.69"/>
        <lane id=":junc4_0_1" index="1" disallow="tram rail_urban rail rail_electric bicycle pedestrian ship" speed="13.41" length="16.80" shape="1224.72,1610.17 1208.14,1612.95"/>
    </edge>
    <edge id=":junc4_2" function="internal">
        <lane id=":junc4_2_0" index="0" disallow="tram rail_urban rail rail_electric bicycle pedestrian ship" speed="13.41" length="16.85" shape="1209.22,1619.46 1225.85,1616.68"/>
        <lane id=":junc4_2_1" index="1" disallow="tram rail_urban rail rail_electric bicycle pedestrian ship" speed="13.41" length="16.85" shape="1208.68,1616.20 1225.29,1613.43"/>
    </edge>
    <edge id=":junc4_4" function="internal">
        <lane id=":junc4_4_0" index="0" speed="13.41" length="22.15" shape="1208.68,1616.20 1215.31,1614.27 1219.12,1611.12 1220.12,1606.77 1218.32,1601.22"/>
    </edge>
    <edge id=":junc4_5" function="internal">
        <lane id=":junc4_5_0" index="0" disallow="tram rail_urban rail rail_electric bicycle pedestrian ship" speed="13.41" length="5.43" shape="1209.54,1605.80 1210.06,1607.28 1209.91,1608.42 1209.09,1609.22 1207.60,1609.69"/>
    </edge>
    <edge id=":junc4_6" function="internal">
        <lane id=":junc4_6_0" index="0" disallow="tram rail_urban rail rail_electric bicycle pedestrian ship" speed="13.41" length="17.20" shape="1212.46,1604.27 1215.94,1610.11 1219.34,1614.12 1222.64,1616.31 1225.85,1616.68"/>
        <lane id=":junc4_6_1" index="1" disallow="tram rail_urban rail rail_electric bicycle pedestrian ship" speed="13.41" length="17.20" shape="1215.39,1602.75 1218.23,1607.67 1220.83,1611.10 1223.18,1613.02 1225.29,1613.43"/>
    </edge>
    <edge id=":junc5_0" function="internal">
        <lane id=":junc5_0_0" index="0" speed="13.41" length="6.81" shape="1362.28,1621.53 1361.80,1623.81 1360.98,1625.27 1359.83,1625.92 1358.35,1625.77"/>
    </edge>
    <edge id=":junc5_1" function="internal">
        <lane id=":junc5_1_0" index="0" speed="13.41" length="21.72" shape="1362.28,1621.53 1361.48,1626.26 1360.18,1632.18 1358.67,1638.06 1357.26,1642.64"/>
    </edge>
    <edge id=":junc5_2" function="internal">
        <lane id=":junc5_2_0" index="0" disallow="tram rail_urban rail rail_electric bicycle pedestrian ship" speed="13.41" length="16.94" shape="1362.28,1621.53 1362.04,1626.93 1362.75,1631.28 1364.40,1634.58 1366.99,1636.84"/>
    </edge>
    <edge id=":junc5_3" function="internal">
        <lane id=":junc5_3_0" index="0" disallow="tram rail_urban rail rail_electric ship" speed="13.41" length="9.27" shape="1371.88,1628.23 1369.00,1626.43 1366.99,1624.78 1365.84,1623.28 1365.56,1621.93"/>
    </edge>
    <edge id=":junc5_4" function="internal">
        <lane id=":junc5_4_0" index="0" speed="13.41" length="13.62" shape="1371.88,1628.23 1368.16,1626.73 1365.31,1626.56 1362.36,1626.62 1358.35,1625.77"/>
        <lane id=":junc5_4_1" index="1" speed="13.41" length="13.62" shape="1370.25,1631.10 1366.68,1629.69 1363.95,1629.58 1361.12,1629.68 1357.28,1628.89"/>
    </edge>
    <edge id=":junc5_6" function="internal">
        <lane id=":junc5_6_0" index="0" speed="13.41" length="16.58" shape="1368.62,1633.97 1365.33,1633.05 1362.34,1634.19 1359.65,1637.39 1357.26,1642.64"/>
    </edge>
    <edge id=":junc5_7" function="internal">
        <lane id=":junc5_7_0" index="0" disallow="tram rail_urban rail rail_electric bicycle pedestrian ship" speed="13.41" length="7.41" shape="1360.37,1643.75 1361.45,1641.35 1362.64,1639.88 1363.94,1639.33 1365.37,1639.71"/>
    </edge>
    <edge id=":junc5_8" function="internal">
        <lane id=":junc5_8_0" index="0" disallow="tram rail_urban rail rail_electric ship" speed="13.41" length="22.45" shape="1360.37,1643.75 1361.80,1639.05 1363.37,1632.93 1364.73,1626.77 1365.56,1621.93"/>
    </edge>
    <edge id=":junc5_9" function="internal">
        <lane id=":junc5_9_0" index="0" speed="13.41" length="17.05" shape="1360.37,1643.75 1361.82,1638.21 1361.78,1633.88 1360.27,1630.78 1357.28,1628.89"/>
    </edge>
    <edge id=":junc5_10" function="internal">
        <lane id=":junc5_10_0" index="0" speed="13.41" length="6.16" shape="1354.06,1638.25 1355.85,1639.07 1356.98,1640.08 1357.45,1641.27 1357.26,1642.64"/>
    </edge>
    <edge id=":junc5_11" function="internal">
        <lane id=":junc5_11_0" index="0" disallow="tram rail_urban rail rail_electric bicycle pedestrian ship" speed="13.41" length="11.87" shape="1354.06,1638.25 1357.40,1638.86 1359.88,1638.62 1362.27,1638.56 1365.37,1639.71"/>
        <lane id=":junc5_11_1" index="1" disallow="tram rail_urban rail rail_electric bicycle pedestrian ship" speed="13.41" length="11.87" shape="1355.13,1635.13 1358.64,1635.80 1361.23,1635.61 1363.74,1635.60 1366.99,1636.84"/>
    </edge>
    <edge id=":junc5_13" function="internal">
        <lane id=":junc5_13_0" index="0" disallow="tram rail_urban rail rail_electric ship" speed="13.41" length="16.21" shape="1356.20,1632.01 1359.72,1632.38 1362.45,1630.83 1364.40,1627.34 1365.56,1621.93"/>
    </edge>
    <edge id=":junc6_0" function="internal">
        <lane id=":junc6_0_0" index="0" disallow="tram rail_urban rail rail_electric bicycle pedestrian ship" speed="13.41" length="13.68" shape="1529.96,1701.07 1525.95,1700.71 1523.08,1701.19 1520.28,1701.46 1516.48,1700.46"/>
        <lane id=":junc6_0_1" index="1" disallow="tram rail_urban rail rail_electric bicycle pedestrian ship" speed="13.41" length="13.68" shape="1528.69,1704.17 1524.68,1703.79 1521.80,1704.25 1519.00,1704.50 1515.19,1703.50"/>
    </edge>
    <edge id=":junc6_2" function="internal">
        <lane id=":junc6_2_0" index="0" disallow="tram rail_urban rail rail_electric ship" speed="13.41" length="16.34" shape="1527.41,1707.26 1522.82,1706.79 1519.09,1707.72 1516.25,1710.04 1514.28,1713.76"/>
    </edge>
    <edge id=":junc6_3" function="internal">
        <lane id=":junc6_3_0" index="0" disallow="tram rail_urban rail rail_electric bicycle pedestrian ship" speed="15.64" length="6.95" shape="1520.23,1716.74 1520.94,1715.31 1521.87,1714.47 1523.03,1714.21 1524.41,1714.54"/>
        <lane id=":junc6_3_1" index="1" disallow="tram rail_urban rail rail_electric bicycle pedestrian ship" speed="15.64" length="6.95" shape="1520.23,1716.74 1521.42,1713.95 1522.73,1712.14 1524.15,1711.32 1525.67,1711.49"/>
    </edge>
    <edge id=":junc6_5" function="internal">
        <lane id=":junc6_5_0" index="0" disallow="tram rail_urban rail rail_electric bicycle pedestrian ship" speed="13.41" length="14.60" shape="1517.25,1715.25 1518.85,1709.60 1519.25,1705.25 1518.46,1702.21 1516.48,1700.46"/>
        <lane id=":junc6_5_1" index="1" disallow="tram rail_urban rail rail_electric bicycle pedestrian ship" speed="13.41" length="14.60" shape="1517.25,1715.25 1518.36,1710.96 1518.38,1707.57 1517.33,1705.09 1515.19,1703.50"/>
    </edge>
    <edge id=":junc6_7" function="internal">
        <lane id=":junc6_7_0" index="0" disallow="tram rail_urban rail rail_electric ship" speed="13.41" length="5.06" shape="1512.61,1709.58 1513.74,1710.27 1514.39,1711.20 1514.57,1712.36 1514.28,1713.76"/>
    </edge>
    <edge id=":junc6_8" function="internal">
        <lane id=":junc6_8_0" index="0" disallow="tram rail_urban rail rail_electric bicycle pedestrian ship" speed="15.64" length="12.79" shape="1512.61,1709.58 1524.41,1714.54"/>
        <lane id=":junc6_8_1" index="1" disallow="tram rail_urban rail rail_electric bicycle pedestrian ship" speed="15.64" length="12.79" shape="1513.90,1706.54 1525.67,1711.49"/>
    </edge>
    <edge id=":junc7_0" function="internal">
        <lane id=":junc7_0_0" index="0" speed="13.41" length="10.02" shape="2890.52,2509.74 2887.96,2511.06 2886.57,2512.67 2885.18,2514.29 2882.63,2515.63"/>
        <lane id=":junc7_0_1" index="1" speed="13.41" length="10.02" shape="2891.49,2512.89 2888.94,2514.22 2887.55,2515.83 2886.16,2517.44 2883.61,2518.78"/>
    </edge>
    <edge id=":junc7_2" function="internal">
        <lane id=":junc7_2_0" index="0" speed="11.18" length="16.08" shape="2892.46,2516.05 2889.74,2517.72 2888.52,2520.61 2888.77,2524.73 2890.52,2530.08"/>
    </edge>
    <edge id=":junc7_3" function="internal">
        <lane id=":junc7_3_0" index="0" speed="13.41" length="7.37" shape="2893.56,2528.81 2892.76,2526.35 2892.63,2524.45 2893.17,2523.12 2894.39,2522.36"/>
    </edge>
    <edge id=":junc7_4" function="internal">
        <lane id=":junc7_4_0" index="0" speed="13.41" length="15.25" shape="2893.56,2528.81 2891.12,2523.82 2888.65,2520.49 2886.15,2518.81 2883.61,2518.78"/>
    </edge>
    <edge id=":junc7_5" function="internal">
        <lane id=":junc7_5_0" index="0" speed="11.18" length="4.89" shape="2886.55,2528.23 2887.86,2528.02 2888.96,2528.25 2889.84,2528.94 2890.52,2530.08"/>
    </edge>
    <edge id=":junc7_6" function="internal">
        <lane id=":junc7_6_0" index="0" speed="13.41" length="9.98" shape="2886.55,2528.23 2889.09,2526.90 2890.47,2525.29 2891.85,2523.68 2894.39,2522.36"/>
        <lane id=":junc7_6_1" index="1" speed="13.41" length="9.98" shape="2885.57,2525.08 2888.12,2523.75 2889.50,2522.14 2890.88,2520.53 2893.43,2519.21"/>
    </edge>
    <edge id=":junc8_0" function="internal">
        <lane id=":junc8_0_0" index="0" speed="11.18" length="5.80" shape="2977.75,2487.26 2976.48,2487.21 2975.33,2486.67 2974.29,2485.63 2973.38,2484.09"/>
    </edge>
    <edge id=":junc8_1" function="internal">
        <lane id=":junc8_1_0" index="0" speed="13.41" length="9.18" shape="2977.75,2487.26 2975.00,2487.72 2973.14,2488.15 2971.30,2488.70 2968.63,2489.52"/>
        <lane id=":junc8_1_1" index="1" speed="13.41" length="9.18" shape="2978.25,2490.52 2975.64,2490.96 2973.86,2491.37 2972.12,2491.90 2969.58,2492.68"/>
    </edge>
    <edge id=":junc8_3" function="internal">