<?xml version="1.0" encoding="UTF-8"?>

<!-- generated on 04/16/20 17:35:05 by SUMO netconvert Version 0.32.0
<?xml version="1.0" encoding="UTF-8"?>

<configuration xmlns:xsi="http://www.w3.org/2001/XMLSchema-instance" xsi:noNamespaceSchemaLocation="http://sumo.dlr.de/xsd/netconvertConfiguration.xsd">

    <input>
        <sumo-net-file value="sellyOak.net.xml"/>
    </input>

    <output>
        <plain-output-prefix value="sellyOak"/>
    </output>

    <processing>
        <no-turnarounds value="true"/>
        <offset.disable-normalization value="true"/>
        <lefthand value="true"/>
        <junctions.corner-detail value="0"/>
        <rectangular-lane-cut value="false"/>
        <walkingareas value="false"/>
    </processing>

</configuration>
-->

<nodes version="0.27" xmlns:xsi="http://www.w3.org/2001/XMLSchema-instance" xsi:noNamespaceSchemaLocation="http://sumo.dlr.de/xsd/nodes_file.xsd">
    <location netOffset="-571510.31,5809675.96" convBoundary="9.48,124.68,3027.35,2863.23" origBoundary="-1.948073,52.432516,-1.904730,52.460523" projParameter="+proj=utm +zone=30 +ellps=WGS84 +datum=WGS84 +units=m +no_defs"/>

    <node id="gneJ0" x="2461.94" y="1948.25" type="priority"/>
    <node id="junc0" x="923.69" y="1415.69" type="traffic_light" tl="junc0"/>
    <node id="junc1" x="704.21" y="1099.82" type="traffic_light" tl="junc1"/>
    <node id="junc10" x="530.04" y="755.90" type="traffic_light" tl="junc10"/>
    <node id="junc11" x="570.86" y="823.02" type="traffic_light" tl="junc11"/>
    <node id="junc12" x="2754.55" y="2564.35" type="traffic_light" tl="junc12"/>
    <node id="junc2" x="124.26" y="321.48" type="unregulated"/>
    <node id="junc3" x="2541.84" y="2610.04" type="traffic_light" tl="junc3"/>
    <node id="junc4" x="1222.23" y="1612.28" type="traffic_light" tl="junc4"/>
    <node id="junc5" x="1362.63" y="1632.47" type="traffic_light" tl="junc5"/>
    <node id="junc6" x="1519.31" y="1707.04" type="traffic_light" tl="junc6"/>
    <node id="junc7" x="2887.77" y="2519.21" type="traffic_light" tl="junc7"/>
    <node id="junc8" x="2975.63" y="2492.59" type="traffic_light" tl="junc8"/>
    <node id="junc9" x="646.98" y="931.20" type="traffic_light" tl="junc9"/>
    <node id="node0" x="1485.38" y="1831.49" type="dead_end"/>
    <node id="node1" x="1494.16" y="1797.25" type="unregulated"/>
    <node id="node100" x="158.03" y="298.83" type="priority"/>
    <node id="node101" x="174.93" y="298.39" type="priority"/>
    <node id="node102" x="862.95" y="1083.41" type="priority"/>
    <node id="node103" x="849.55" y="1099.69" type="priority"/>
    <node id="node104" x="1259.23" y="1415.89" type="right_before_left"/>
    <node id="node105" x="1176.13" y="1383.01" type="right_before_left"/>
    <node id="node106" x="1056.25" y="1162.98" type="priority"/>
    <node id="node107" x="2827.70" y="2708.98" type="dead_end"/>
    <node id="node108" x="2803.04" y="2658.08" type="zipper"/>
    <node id="node109" x="569.83" y="477.05" type="unregulated"/>
    <node id="node11" x="2567.16" y="2663.57" type="unregulated"/>
    <node id="node110" x="545.79" y="703.58" type="unregulated"/>
    <node id="node111" x="732.19" y="1079.00" type="unregulated"/>
    <node id="node112" x="758.23" y="1080.10" type="unregulated"/>
    <node id="node113" x="773.90" y="1095.99" type="dead_end"/>
    <node id="node114" x="955.34" y="1452.10" type="priority"/>
    <node id="node115" x="1349.66" y="1668.95" type="dead_end"/>
    <node id="node116" x="2504.53" y="2550.56" type="unregulated"/>
    <node id="node118" x="2832.54" y="2536.42" type="unregulated"/>
    <node id="node12" x="2621.77" y="2768.63" type="priority"/>
    <node id="node120" x="2909.08" y="2570.29" type="dead_end"/>
    <node id="node121" x="2927.39" y="2507.08" type="unregulated"/>
    <node id="node123" x="2952.20" y="2443.81" type="dead_end"/>
    <node id="node124" x="3027.35" y="2484.63" type="dead_end"/>
    <node id="node125" x="477.37" y="1026.78" type="priority"/>
    <node id="node126" x="502.48" y="1065.66" type="dead_end"/>
    <node id="node127" x="555.50" y="972.31" type="priority"/>
    <node id="node128" x="570.65" y="1002.90" type="dead_end"/>
    <node id="node129" x="418.65" y="1073.43" type="unregulated"/>
    <node id="node13" x="2673.00" y="2863.23" type="dead_end"/>
    <node id="node130" x="383.32" y="1132.32" type="dead_end"/>
    <node id="node131" x="2545.79" y="2353.35" type="unregulated"/>
    <node id="node132" x="973.17" y="1129.54" type="priority"/>
    <node id="node133" x="1160.21" y="1169.87" type="dead_end"/>
    <node id="node134" x="2304.58" y="2244.34" type="priority"/>
    <node id="node135" x="2073.29" y="2048.00" type="unregulated"/>
    <node id="node136" x="1591.71" y="1718.72" type="unregulated"/>
    <node id="node137" x="444.33" y="653.35" type="priority"/>
    <node id="node138" x="585.59" y="818.34" type="priority"/>
    <node id="node139" x="545.56" y="743.12" type="unregulated"/>
    <node id="node14" x="2355.49" y="2203.48" type="priority"/>
    <node id="node140" x="154.99" y="284.42" type="priority"/>
    <node id="node141" x="170.84" y="276.73" type="priority"/>
    <node id="node142" x="1241.46" y="1590.66" type="unregulated"/>
    <node id="node143" x="443.12" y="636.02" type="priority"/>
    <node id="node144" x="423.50" y="614.96" type="unregulated"/>
    <node id="node145" x="372.24" y="562.71" type="priority"/>
    <node id="node146" x="348.72" y="538.90" type="unregulated"/>
    <node id="node147" x="322.53" y="511.82" type="priority"/>
    <node id="node1477" x="459.35" y="983.51" type="unregulated"/>
    <node id="node148" x="185.80" y="350.55" type="unregulated"/>
    <node id="node149" x="180.09" y="322.82" type="priority"/>
    <node id="node15" x="2339.91" y="2192.76" type="priority"/>
    <node id="node150" x="178.29" y="314.23" type="priority"/>
    <node id="node152" x="507.94" y="819.75" type="priority"/>
    <node id="node153" x="488.87" y="890.83" type="priority"/>
    <node id="node155" x="444.41" y="1019.91" type="unregulated"/>
    <node id="node156" x="461.91" y="658.54" type="priority"/>
    <node id="node157" x="1583.17" y="1733.23" type="unregulated"/>
    <node id="node158" x="2042.39" y="2045.33" type="unregulated"/>
    <node id="node159" x="2295.21" y="2262.26" type="priority"/>
    <node id="node16" x="2435.52" y="2057.85" type="priority"/>
    <node id="node160" x="2300.43" y="2267.36" type="priority"/>
    <node id="node161" x="2313.11" y="2278.90" type="unregulated"/>
    <node id="node162" x="2366.74" y="2327.22" type="unregulated"/>
    <node id="node163" x="2317.91" y="2256.55" type="priority"/>
    <node id="node164" x="420.06" y="628.83" type="unregulated"/>
    <node id="node165" x="457.08" y="667.24" type="priority"/>
    <node id="node166" x="559.35" y="643.65" type="unregulated"/>
    <node id="node167" x="628.04" y="890.04" type="unregulated"/>
    <node id="node168" x="552.89" y="796.00" type="unregulated"/>
    <node id="node17" x="2451.24" y="2066.68" type="priority"/>
    <node id="node170" x="605.46" y="875.98" type="priority"/>
    <node id="node171" x="500.79" y="706.52" type="priority"/>
    <node id="node172" x="481.02" y="682.69" type="unregulated"/>
    <node id="node173" x="103.41" y="160.73" type="dead_end"/>
    <node id="node174" x="120.35" y="186.20" type="priority"/>
    <node id="node175" x="2377.48" y="2315.00" type="priority"/>
    <node id="node176" x="2333.12" y="2271.24" type="unregulated"/>
    <node id="node177" x="186.49" y="380.94" type="unregulated"/>
    <node id="node178" x="310.55" y="520.05" type="priority"/>
    <node id="node179" x="134.02" y="177.86" type="priority"/>
    <node id="node18" x="772.32" y="792.08" type="unregulated"/>
    <node id="node180" x="116.79" y="153.28" type="dead_end"/>
    <node id="node181" x="522.19" y="712.89" type="unregulated"/>
    <node id="node182" x="361.55" y="570.71" type="priority"/>
    <node id="node183" x="161.90" y="327.62" type="priority"/>
    <node id="node184" x="171.05" y="350.09" type="unregulated"/>
    <node id="node185" x="160.34" y="313.22" type="priority"/>
    <node id="node186" x="527.88" y="869.37" type="dead_end"/>
    <node id="node187" x="571.76" y="936.49" type="dead_end"/>
    <node id="node19" x="807.19" y="750.89" type="unregulated"/>
    <node id="node2" x="1506.49" y="1751.35" type="unregulated"/>
    <node id="node20" x="828.27" y="726.23" type="dead_end"/>
    <node id="node21" x="718.86" y="854.30" type="unregulated"/>
    <node id="node23" x="654.69" y="946.81" type="unregulated"/>
    <node id="node24" x="710.57" y="942.68" type="priority"/>
    <node id="node25" x="745.01" y="941.89" type="dead_end"/>
    <node id="node26" x="564.44" y="249.13" type="priority"/>
    <node id="node27" x="578.15" y="192.87" type="unregulated"/>
    <node id="node28" x="571.00" y="411.17" type="unregulated"/>
    <node id="node29" x="912.03" y="1424.83" type="priority"/>
    <node id="node3" x="1324.29" y="1619.30" type="unregulated"/>
    <node id="node31" x="861.71" y="1464.23" type="priority"/>
    <node id="node32" x="856.38" y="1617.84" type="priority"/>
    <node id="node33" x="814.46" y="1387.38" type="dead_end"/>
    <node id="node34" x="183.34" y="337.25" type="priority"/>
    <node id="node35" x="285.34" y="312.50" type="unregulated"/>
    <node id="node36" x="300.69" y="307.64" type="dead_end"/>
    <node id="node37" x="730.16" y="1139.59" type="unregulated"/>
    <node id="node38" x="714.35" y="1114.73" type="unregulated"/>
    <node id="node39" x="764.15" y="1196.56" type="priority"/>
    <node id="node4" x="1282.94" y="1608.18" type="unregulated"/>
    <node id="node41" x="427.39" y="672.55" type="unregulated"/>
    <node id="node42" x="217.03" y="705.69" type="unregulated"/>
    <node id="node43" x="191.18" y="709.87" type="dead_end"/>
    <node id="node44" x="9.48" y="396.09" type="dead_end"/>
    <node id="node45" x="26.30" y="385.40" type="unregulated"/>
    <node id="node47" x="1372.60" y="1549.54" type="priority"/>
    <node id="node48" x="1389.38" y="1488.97" type="priority"/>
    <node id="node5" x="1003.00" y="1482.89" type="priority"/>
    <node id="node50" x="682.77" y="1052.01" type="unregulated"/>
    <node id="node51" x="555.95" y="656.98" type="priority"/>
    <node id="node52" x="563.35" y="559.94" type="unregulated"/>
    <node id="node53" x="853.51" y="1323.87" type="priority"/>
    <node id="node54" x="837.47" y="1300.66" type="unregulated"/>
    <node id="node55" x="811.26" y="1263.36" type="unregulated"/>
    <node id="node56" x="2697.53" y="2585.02" type="unregulated"/>
    <node id="node57" x="2627.30" y="2594.84" type="unregulated"/>
    <node id="node58" x="1900.19" y="1924.93" type="priority"/>
    <node id="node59" x="1912.38" y="1910.81" type="priority"/>
    <node id="node6" x="972.21" y="1599.03" type="priority"/>
    <node id="node60" x="1413.11" y="1480.40" type="dead_end"/>
    <node id="node61" x="1405.19" y="1483.54" type="priority"/>
    <node id="node62" x="2587.68" y="2602.59" type="unregulated"/>
    <node id="node63" x="2637.81" y="2307.17" type="priority"/>
    <node id="node64" x="2545.18" y="2118.03" type="unregulated"/>
    <node id="node65" x="2714.98" y="2466.51" type="unregulated"/>
    <node id="node66" x="1998.49" y="1786.58" type="unregulated"/>
    <node id="node67" x="2019.88" y="1756.68" type="dead_end"/>
    <node id="node68" x="2484.22" y="1991.92" type="right_before_left"/>
    <node id="node69" x="2472.15" y="1968.79" type="unregulated"/>
    <node id="node7" x="982.35" y="1635.15" type="unregulated"/>
    <node id="node70" x="2446.21" y="1917.52" type="dead_end"/>
    <node id="node71" x="1034.77" y="1500.81" type="unregulated"/>
    <node id="node72" x="1121.41" y="1542.22" type="priority"/>
    <node id="node73" x="1202.41" y="1574.32" type="priority"/>
    <node id="node74" x="1165.79" y="1559.81" type="priority"/>
    <node id="node75" x="1130.10" y="1620.20" type="zipper"/>
    <node id="node77" x="1249.27" y="1607.60" type="unregulated"/>
    <node id="node79" x="1446.78" y="1676.27" type="unregulated"/>
    <node id="node8" x="871.53" y="1641.50" type="unregulated"/>
    <node id="node80" x="1391.37" y="1648.77" type="unregulated"/>
    <node id="node81" x="2493.94" y="2011.89" type="right_before_left"/>
    <node id="node82" x="461.83" y="610.66" type="unregulated"/>
    <node id="node83" x="2495.24" y="2634.40" type="unregulated"/>
    <node id="node84" x="2274.97" y="2750.10" type="priority"/>
    <node id="node85" x="2261.52" y="2764.89" type="unregulated"/>
    <node id="node86" x="1513.27" y="1721.68" type="unregulated"/>
    <node id="node89" x="1386.43" y="1472.72" type="priority"/>
    <node id="node9" x="1074.92" y="1618.07" type="unregulated"/>
    <node id="node90" x="1391.57" y="1410.22" type="dead_end"/>
    <node id="node91" x="1233.13" y="1487.65" type="right_before_left"/>
    <node id="node92" x="1310.59" y="1596.93" type="dead_end"/>
    <node id="node93" x="1277.73" y="1581.93" type="priority"/>
    <node id="node94" x="1234.93" y="1587.64" type="priority"/>
    <node id="node95" x="794.29" y="1632.03" type="unregulated"/>
    <node id="node96" x="728.83" y="1624.35" type="dead_end"/>
    <node id="node97" x="1113.97" y="1255.41" type="priority"/>
    <node id="node98" x="1140.92" y="1202.82" type="priority"/>
    <node id="node99" x="614.97" y="124.68" type="dead_end"/>
</nodes>
